@<TRIPOS>MOLECULE
CHEMBL478824
   52    56     0     0     0
SMALL
USER_CHARGES

@<TRIPOS>ATOM
      1 C1         -0.0169    1.3920    0.0097 C.ar      1 <0>        -0.1067
      2 C2          1.1638    2.0952    0.0022 C.ar      1 <0>        -0.0680
      3 C3          2.3916    1.4162   -0.0136 C.ar      1 <0>        -0.0525
      4 C4          2.4073    0.0217   -0.0213 C.ar      1 <0>        -0.0610
      5 C5          1.2214   -0.6824   -0.0133 C.ar      1 <0>        -0.0801
      6 C6          0.0021   -0.0041    0.0020 C.ar      1 <0>         0.0029
      7 C7         -1.2685   -0.7629    0.0101 C.2       1 <0>         0.0838
      8 C8         -2.4367   -0.3998    0.6584 C.2       1 <0>         0.0420
      9 N1         -3.3480   -1.3950    0.3911 N.pl3     1 <0>        -0.5527
     10 H1         -4.2652   -1.4333    0.7045 H         1 <0>         0.4201
     11 C9         -2.7306   -2.3088   -0.3880 C.2       1 <0>         0.2073
     12 N2         -1.5039   -1.9309   -0.6164 N.2       1 <0>        -0.4530
     13 C10        -3.3642   -3.5694   -0.9176 C.3       1 <0>        -0.0098
     14 C11        -4.3513   -4.1196    0.1159 C.3       1 <0>        -0.1504
     15 C12        -5.0490   -5.3538   -0.4598 C.3       1 <0>        -0.0032
     16 N3         -5.7731   -4.9853   -1.6823 N.4       1 <0>        -0.5073
     17 C13        -4.8245   -4.5243   -2.7031 C.3       1 <0>        -0.0057
     18 C14        -4.1181   -3.2582   -2.2138 C.3       1 <0>        -0.1429
     19 C15        -2.6595    0.8109    1.4721 C.ar      1 <0>         0.0140
     20 C16        -1.7102    1.2308    2.4136 C.ar      1 <0>        -0.1406
     21 C17        -1.9597    2.3678    3.1521 C.ar      1 <0>         0.1118
     22 N4         -3.0728    3.0563    2.9819 N.ar      1 <0>        -0.4735
     23 C18        -3.9929    2.6965    2.1067 C.ar      1 <0>         0.1086
     24 C19        -3.8235    1.5764    1.3211 C.ar      1 <0>        -0.1669
     25 C20         3.8352   -0.4694   -0.0381 C.3       1 <0>        -0.0829
     26 C21         4.7231    0.7823   -0.0402 C.3       1 <0>        -0.1146
     27 C22         3.7675    1.9504   -0.0244 C.2       1 <0>         0.1664
     28 N5          4.0969    3.2020   -0.0206 N.2       1 <0>        -0.3193
     29 O1          5.4630    3.5746   -0.0322 O.3       1 <0>        -0.4013
     30 H2         -0.9593    1.9192    0.0260 H         1 <0>         0.1263
     31 H3          1.1466    3.1751    0.0082 H         1 <0>         0.1332
     32 H4          1.2366   -1.7623   -0.0192 H         1 <0>         0.1328
     33 H5         -2.5904   -4.3112   -1.1152 H         1 <0>         0.1248
     34 H6         -3.8128   -4.3957    1.0225 H         1 <0>         0.1211
     35 H7         -5.0946   -3.3578    0.3510 H         1 <0>         0.0852
     36 H8         -4.3050   -6.1151   -0.6942 H         1 <0>         0.1377
     37 H9         -5.7524   -5.7482    0.2736 H         1 <0>         0.1390
     38 H10        -6.2753   -5.7886   -2.0296 H         1 <0>         0.4354
     39 H11        -4.0852   -5.3032   -2.8898 H         1 <0>         0.1370
     40 H12        -5.3621   -4.3062   -3.6260 H         1 <0>         0.1390
     41 H13        -4.8565   -2.4784   -2.0271 H         1 <0>         0.0882
     42 H14        -3.4130   -2.9184   -2.9724 H         1 <0>         0.1232
     43 H15        -0.7975    0.6721    2.5587 H         1 <0>         0.1415
     44 H16        -1.2343    2.6997    3.8802 H         1 <0>         0.1649
     45 H17        -4.8889    3.2901    2.0015 H         1 <0>         0.1617
     46 H18        -4.5785    1.2905    0.6037 H         1 <0>         0.1311
     47 H19         4.0353   -1.0686    0.8502 H         1 <0>         0.0917
     48 H20         4.0176   -1.0590   -0.9366 H         1 <0>         0.0917
     49 H21         5.3544    0.7989    0.8482 H         1 <0>         0.0969
     50 H22         5.3366    0.8084   -0.9408 H         1 <0>         0.0966
     51 H23         5.6100    4.5303   -0.0283 H         1 <0>         0.4088
     52 H24        -6.4276   -4.2461   -1.4744 H         1 <0>         0.4275
@<TRIPOS>BOND
     1    1    6 ar
     2    1    2 ar
     3    1   30 1
     4    2    3 ar
     5    2   31 1
     6    3   27 1
     7    3    4 ar
     8    4    5 ar
     9    4   25 1
    10    5    6 ar
    11    5   32 1
    12    6    7 1
    13    7   12 1
    14    7    8 2
    15    8    9 1
    16    8   19 1
    17    9   10 1
    18    9   11 1
    19   11   12 2
    20   11   13 1
    21   13   18 1
    22   13   14 1
    23   13   33 1
    24   14   15 1
    25   14   34 1
    26   14   35 1
    27   15   16 1
    28   15   36 1
    29   15   37 1
    30   16   17 1
    31   16   38 1
    32   16   52 1
    33   17   18 1
    34   17   39 1
    35   17   40 1
    36   18   41 1
    37   18   42 1
    38   19   24 ar
    39   19   20 ar
    40   20   21 ar
    41   20   43 1
    42   21   22 ar
    43   21   44 1
    44   22   23 ar
    45   23   24 ar
    46   23   45 1
    47   24   46 1
    48   25   26 1
    49   25   47 1
    50   25   48 1
    51   26   27 1
    52   26   49 1
    53   26   50 1
    54   27   28 2
    55   28   29 1
    56   29   51 1
@<TRIPOS>MOLECULE
CHEMBL478824__1
   52    56     0     0     0
SMALL
USER_CHARGES

@<TRIPOS>ATOM
      1 C1          0.0832    1.3090    0.0463 C.ar      1 <0>        -0.0897
      2 C2          1.2762    1.9673   -0.0167 C.ar      1 <0>        -0.0648
      3 C3          2.4669    1.2562   -0.2330 C.ar      1 <0>        -0.0442
      4 C4          2.4244   -0.1300   -0.3835 C.ar      1 <0>        -0.0591
      5 C5          1.2268   -0.7905   -0.3209 C.ar      1 <0>        -0.0979
      6 C6          0.0429   -0.0804   -0.1049 C.ar      1 <0>        -0.0152
      7 C7         -1.2459   -0.7945   -0.0375 C.2       1 <0>         0.0613
      8 C8         -2.4193   -0.4555   -0.6897 C.2       1 <0>         0.0667
      9 N1         -3.3471   -1.3706   -0.3529 N.2       1 <0>        -0.4491
     10 H1         -0.9014   -2.4232    1.2438 H         1 <0>         0.4205
     11 C9         -2.8233   -2.2454    0.4594 C.2       1 <0>         0.2026
     12 N2         -1.5218   -1.9341    0.6810 N.pl3     1 <0>        -0.5562
     13 C10        -3.5500   -3.4230    1.0562 C.3       1 <0>        -0.0088
     14 C11        -2.5851   -4.6042    1.1936 C.3       1 <0>        -0.1504
     15 C12        -3.3076   -5.7697    1.8726 C.3       1 <0>        -0.0033
     16 N3         -3.7689   -5.3556    3.2031 N.4       1 <0>        -0.5073
     17 C13        -4.7493   -4.2707    3.0750 C.3       1 <0>        -0.0057
     18 C14        -4.0823   -3.0476    2.4422 C.3       1 <0>        -0.1427
     19 C15        -2.6173    0.7017   -1.5913 C.ar      1 <0>         0.0305
     20 C16        -1.6464    1.0512   -2.5367 C.ar      1 <0>        -0.1527
     21 C17        -1.8717    2.1368   -3.3566 C.ar      1 <0>         0.1052
     22 N4         -2.9834    2.8411   -3.2582 N.ar      1 <0>        -0.4783
     23 C18        -3.9240    2.5458   -2.3809 C.ar      1 <0>         0.1027
     24 C19        -3.7833    1.4731   -1.5259 C.ar      1 <0>        -0.1472
     25 C20         3.8217   -0.6594   -0.6022 C.3       1 <0>        -0.0831
     26 C21         4.7552    0.5583   -0.5722 C.3       1 <0>        -0.1145
     27 C22         3.8550    1.7466   -0.3363 C.2       1 <0>         0.1615
     28 N5          4.2343    2.9805   -0.2413 N.2       1 <0>        -0.3137
     29 O1          5.6060    3.3107   -0.3607 O.3       1 <0>        -0.3985
     30 H2         -0.8296    1.8604    0.2173 H         1 <0>         0.1325
     31 H3          1.3048    3.0406    0.1000 H         1 <0>         0.1374
     32 H4          1.1971   -1.8637   -0.4379 H         1 <0>         0.1255
     33 H5         -4.3818   -3.7036    0.4101 H         1 <0>         0.1240
     34 H6         -2.2449   -4.9131    0.2052 H         1 <0>         0.1209
     35 H7         -1.7281   -4.3058    1.7974 H         1 <0>         0.0856
     36 H8         -4.1641   -6.0675    1.2679 H         1 <0>         0.1375
     37 H9         -2.6234   -6.6124    1.9718 H         1 <0>         0.1389
     38 H10        -4.1974   -6.1414    3.6690 H         1 <0>         0.4353
     39 H11        -5.5751   -4.6005    2.4446 H         1 <0>         0.1368
     40 H12        -5.1295   -4.0068    4.0618 H         1 <0>         0.1389
     41 H13        -3.2564   -2.7168    3.0719 H         1 <0>         0.0886
     42 H14        -4.8123   -2.2438    2.3463 H         1 <0>         0.1228
     43 H15        -0.7341    0.4795   -2.6225 H         1 <0>         0.1331
     44 H16        -1.1282    2.4145   -4.0890 H         1 <0>         0.1593
     45 H17        -4.8182    3.1497   -2.3350 H         1 <0>         0.1600
     46 H18        -4.5593    1.2341   -0.8138 H         1 <0>         0.1365
     47 H19         4.0875   -1.3543    0.1943 H         1 <0>         0.0907
     48 H20         3.8862   -1.1565   -1.5701 H         1 <0>         0.0930
     49 H21         5.4747    0.4624    0.2409 H         1 <0>         0.0972
     50 H22         5.2732    0.6605   -1.5258 H         1 <0>         0.0985
     51 H23         5.7919    4.2559   -0.2760 H         1 <0>         0.4107
     52 H24        -2.9816   -5.0338    3.7459 H         1 <0>         0.4276
@<TRIPOS>BOND
     1    1    6 ar
     2    1    2 ar
     3    1   30 1
     4    2    3 ar
     5    2   31 1
     6    3   27 1
     7    3    4 ar
     8    4    5 ar
     9    4   25 1
    10    5    6 ar
    11    5   32 1
    12    6    7 1
    13    7    8 2
    14    7   12 1
    15    8    9 1
    16    8   19 1
    17    9   11 2
    18   10   12 1
    19   11   13 1
    20   11   12 1
    21   13   18 1
    22   13   14 1
    23   13   33 1
    24   14   15 1
    25   14   34 1
    26   14   35 1
    27   15   16 1
    28   15   36 1
    29   15   37 1
    30   16   17 1
    31   16   38 1
    32   16   52 1
    33   17   18 1
    34   17   39 1
    35   17   40 1
    36   18   41 1
    37   18   42 1
    38   19   24 ar
    39   19   20 ar
    40   20   21 ar
    41   20   43 1
    42   21   22 ar
    43   21   44 1
    44   22   23 ar
    45   23   24 ar
    46   23   45 1
    47   24   46 1
    48   25   26 1
    49   25   47 1
    50   25   48 1
    51   26   27 1
    52   26   49 1
    53   26   50 1
    54   27   28 2
    55   28   29 1
    56   29   51 1
@<TRIPOS>MOLECULE
CHEMBL478823
   51    54     0     0     0
SMALL
USER_CHARGES

@<TRIPOS>ATOM
      1 C1         -0.2041    1.6910   -0.3155 C.3       1 <0>        -0.1735
      2 C2         -0.1261    0.1713   -0.1563 C.3       1 <0>         0.0074
      3 C3          0.5751   -0.1682    1.1605 C.3       1 <0>        -0.1686
      4 C4         -1.5398   -0.4137   -0.1469 C.3       1 <0>         0.0105
      5 N1         -2.2988    0.1577    0.9735 N.4       1 <0>        -0.6393
      6 C5          0.6525   -0.4149   -1.3057 C.2       1 <0>         0.2081
      7 N2          1.8182    0.0703   -1.7843 N.pl3     1 <0>        -0.5427
      8 H1          2.2959    0.8471   -1.4537 H         1 <0>         0.4260
      9 C6          2.2037   -0.7403   -2.8269 C.2       1 <0>         0.0513
     10 C7          1.2253   -1.7134   -2.9405 C.2       1 <0>         0.0833
     11 N3          0.3066   -1.4716   -1.9867 N.2       1 <0>        -0.4628
     12 C8          1.1976   -2.8182   -3.9247 C.ar      1 <0>         0.0040
     13 C9          2.3654   -3.5277   -4.2133 C.ar      1 <0>        -0.1031
     14 C10         2.3380   -4.5530   -5.1272 C.ar      1 <0>        -0.0671
     15 C11         1.1398   -4.8922   -5.7746 C.ar      1 <0>        -0.0510
     16 C12        -0.0244   -4.1821   -5.4845 C.ar      1 <0>        -0.0620
     17 C13         0.0036   -3.1568   -4.5618 C.ar      1 <0>        -0.0820
     18 C14        -1.1701   -4.7306   -6.3011 C.3       1 <0>        -0.0820
     19 C15        -0.5913   -5.8747   -7.1444 C.3       1 <0>        -0.1148
     20 C16         0.8716   -5.9404   -6.7786 C.2       1 <0>         0.1647
     21 N4          1.7394   -6.7702   -7.2616 N.2       1 <0>        -0.3178
     22 O1          1.3421   -7.7295   -8.2243 O.3       1 <0>        -0.4006
     23 C17         3.4154   -0.6003   -3.6574 C.ar      1 <0>         0.0104
     24 C18         3.3431   -0.6720   -5.0550 C.ar      1 <0>        -0.1393
     25 C19         4.5004   -0.5358   -5.7916 C.ar      1 <0>         0.1116
     26 N5          5.6629   -0.3407   -5.1979 N.ar      1 <0>        -0.4724
     27 C20         5.7761   -0.2668   -3.8850 C.ar      1 <0>         0.1096
     28 C21         4.6700   -0.3861   -3.0710 C.ar      1 <0>        -0.1639
     29 H2          0.8031    2.1077   -0.3222 H         1 <0>         0.0831
     30 H3         -0.7036    1.9329   -1.2537 H         1 <0>         0.0837
     31 H4         -0.7672    2.1150    0.5158 H         1 <0>         0.0717
     32 H5          0.0119    0.2558    1.9918 H         1 <0>         0.0683
     33 H6          0.6306   -1.2509    1.2739 H         1 <0>         0.0846
     34 H7          1.5822    0.2485    1.1538 H         1 <0>         0.0843
     35 H8         -2.0394   -0.1718   -1.0850 H         1 <0>         0.1446
     36 H9         -1.4843   -1.4964   -0.0335 H         1 <0>         0.1512
     37 H10        -3.2311   -0.2281    0.9797 H         1 <0>         0.4434
     38 H11        -1.8364   -0.0662    1.8419 H         1 <0>         0.4333
     39 H12         3.2900   -3.2700   -3.7183 H         1 <0>         0.1263
     40 H13         3.2424   -5.1002   -5.3487 H         1 <0>         0.1336
     41 H14        -0.9007   -2.6116   -4.3354 H         1 <0>         0.1298
     42 H15        -1.9514   -5.1096   -5.6423 H         1 <0>         0.0907
     43 H16        -1.5723   -3.9533   -6.9508 H         1 <0>         0.0913
     44 H17        -1.0852   -6.8141   -6.8961 H         1 <0>         0.0966
     45 H18        -0.7056   -5.6564   -8.2062 H         1 <0>         0.0971
     46 H19         2.0588   -8.3045   -8.5257 H         1 <0>         0.4095
     47 H20         2.3953   -0.8318   -5.5476 H         1 <0>         0.1401
     48 H21         4.4552   -0.5900   -6.8693 H         1 <0>         0.1645
     49 H22         6.7481   -0.1064   -3.4424 H         1 <0>         0.1628
     50 H23         4.7693   -0.3197   -1.9976 H         1 <0>         0.1332
     51 H24        -2.3502    1.1599    0.8685 H         1 <0>         0.4322
@<TRIPOS>BOND
     1    1    2 1
     2    1   29 1
     3    1   30 1
     4    1   31 1
     5    2    3 1
     6    2    4 1
     7    2    6 1
     8    3   32 1
     9    3   33 1
    10    3   34 1
    11    4    5 1
    12    4   35 1
    13    4   36 1
    14    5   37 1
    15    5   38 1
    16    5   51 1
    17    6   11 2
    18    6    7 1
    19    7    8 1
    20    7    9 1
    21    9   10 2
    22    9   23 1
    23   10   11 1
    24   10   12 1
    25   12   17 ar
    26   12   13 ar
    27   13   14 ar
    28   13   39 1
    29   14   15 ar
    30   14   40 1
    31   15   20 1
    32   15   16 ar
    33   16   17 ar
    34   16   18 1
    35   17   41 1
    36   18   19 1
    37   18   42 1
    38   18   43 1
    39   19   20 1
    40   19   44 1
    41   19   45 1
    42   20   21 2
    43   21   22 1
    44   22   46 1
    45   23   28 ar
    46   23   24 ar
    47   24   25 ar
    48   24   47 1
    49   25   26 ar
    50   25   48 1
    51   26   27 ar
    52   27   28 ar
    53   27   49 1
    54   28   50 1
@<TRIPOS>MOLECULE
CHEMBL478823__1
   51    54     0     0     0
SMALL
USER_CHARGES

@<TRIPOS>ATOM
      1 C1         -0.0187    1.5258    0.0104 C.3       1 <0>        -0.1736
      2 C2          0.0021   -0.0041    0.0020 C.3       1 <0>         0.0084
      3 C3          0.7421   -0.5109    1.2415 C.3       1 <0>        -0.1683
      4 C4         -1.4333   -0.5336    0.0129 C.3       1 <0>         0.0104
      5 N1         -2.1209   -0.0599    1.2215 N.4       1 <0>        -0.6391
      6 C5          0.7074   -0.4901   -1.2379 C.2       1 <0>         0.2051
      7 N2          0.2905   -1.4517   -2.0129 N.2       1 <0>        -0.4596
      8 H1          2.3911    0.7328   -1.3393 H         1 <0>         0.4266
      9 C6          1.1598   -1.6236   -3.0262 C.2       1 <0>         0.0669
     10 C7          2.1798   -0.7023   -2.8588 C.2       1 <0>         0.0707
     11 N3          1.8714    0.0093   -1.7233 N.pl3     1 <0>        -0.5462
     12 C8          3.3576   -0.5176   -3.7273 C.ar      1 <0>        -0.0207
     13 C9          4.0742   -1.6289   -4.1826 C.ar      1 <0>        -0.0889
     14 C10         5.1628   -1.4555   -4.9854 C.ar      1 <0>        -0.0659
     15 C11         5.5696   -0.1646   -5.3585 C.ar      1 <0>        -0.0417
     16 C12         4.8535    0.9422   -4.9033 C.ar      1 <0>        -0.0587
     17 C13         3.7569    0.7677   -4.1018 C.ar      1 <0>        -0.0958
     18 C14         5.4819    2.2074   -5.4369 C.3       1 <0>        -0.0837
     19 C15         6.6831    1.7691   -6.2855 C.3       1 <0>        -0.1146
     20 C16         6.6993    0.2619   -6.2069 C.2       1 <0>         0.1610
     21 N4          7.5551   -0.5201   -6.7826 N.2       1 <0>        -0.3131
     22 O1          8.5948    0.0275   -7.5728 O.3       1 <0>        -0.3980
     23 C17         1.0465   -2.6161   -4.1186 C.ar      1 <0>         0.0300
     24 C18         1.4897   -2.3159   -5.4117 C.ar      1 <0>        -0.1550
     25 C19         1.3650   -3.2700   -6.3995 C.ar      1 <0>         0.1063
     26 N5          0.8370   -4.4509   -6.1382 N.ar      1 <0>        -0.4781
     27 C20         0.4068   -4.7745   -4.9333 C.ar      1 <0>         0.1026
     28 C21         0.4985   -3.8826   -3.8856 C.ar      1 <0>        -0.1481
     29 H2          1.0039    1.9031    0.0027 H         1 <0>         0.0835
     30 H3         -0.5459    1.8868   -0.8726 H         1 <0>         0.0835
     31 H4         -0.5289    1.8773    0.9072 H         1 <0>         0.0716
     32 H5          0.2319   -0.1594    2.1383 H         1 <0>         0.0680
     33 H6          0.7568   -1.6008    1.2356 H         1 <0>         0.0844
     34 H7          1.7647   -0.1336    1.2338 H         1 <0>         0.0847
     35 H8         -1.9605   -0.1726   -0.8702 H         1 <0>         0.1443
     36 H9         -1.4185   -1.6235    0.0069 H         1 <0>         0.1507
     37 H10        -3.0675   -0.4091    1.2287 H         1 <0>         0.4434
     38 H11        -1.6329   -0.3941    2.0389 H         1 <0>         0.4333
     39 H12         3.7657   -2.6241   -3.8982 H         1 <0>         0.1333
     40 H13         5.7149   -2.3152   -5.3355 H         1 <0>         0.1382
     41 H14         3.2015    1.6265   -3.7548 H         1 <0>         0.1264
     42 H15         4.7656    2.7495   -6.0542 H         1 <0>         0.0932
     43 H16         5.8164    2.8360   -4.6115 H         1 <0>         0.0918
     44 H17         6.5535    2.0920   -7.3184 H         1 <0>         0.0986
     45 H18         7.6056    2.1786   -5.8740 H         1 <0>         0.0978
     46 H19         9.1835   -0.6339   -7.9613 H         1 <0>         0.4107
     47 H20         1.9225   -1.3515   -5.6327 H         1 <0>         0.1352
     48 H21         1.7038   -3.0477   -7.4006 H         1 <0>         0.1599
     49 H22        -0.0186   -5.7527   -4.7644 H         1 <0>         0.1597
     50 H23         0.1490   -4.1559   -2.9009 H         1 <0>         0.1364
     51 H24        -2.1346    0.9490    1.2270 H         1 <0>         0.4322
@<TRIPOS>BOND
     1    1    2 1
     2    1   29 1
     3    1   30 1
     4    1   31 1
     5    2    3 1
     6    2    4 1
     7    2    6 1
     8    3   32 1
     9    3   33 1
    10    3   34 1
    11    4    5 1
    12    4   35 1
    13    4   36 1
    14    5   37 1
    15    5   38 1
    16    5   51 1
    17    6    7 2
    18    6   11 1
    19    7    9 1
    20    8   11 1
    21    9   23 1
    22    9   10 2
    23   10   12 1
    24   10   11 1
    25   12   17 ar
    26   12   13 ar
    27   13   14 ar
    28   13   39 1
    29   14   15 ar
    30   14   40 1
    31   15   20 1
    32   15   16 ar
    33   16   17 ar
    34   16   18 1
    35   17   41 1
    36   18   19 1
    37   18   42 1
    38   18   43 1
    39   19   20 1
    40   19   44 1
    41   19   45 1
    42   20   21 2
    43   21   22 1
    44   22   46 1
    45   23   28 ar
    46   23   24 ar
    47   24   25 ar
    48   24   47 1
    49   25   26 ar
    50   25   48 1
    51   26   27 ar
    52   27   28 ar
    53   27   49 1
    54   28   50 1
@<TRIPOS>MOLECULE
CHEMBL477988
   52    55     0     0     0
SMALL
USER_CHARGES

@<TRIPOS>ATOM
      1 C1          1.2184   -0.7184   -1.3201 C.3       1 <0>        -0.0548
      2 N1          0.3300   -0.2274   -0.2582 N.4       1 <0>        -0.3902
      3 C2          0.3374    1.2415   -0.2538 C.3       1 <0>        -0.0477
      4 C3         -1.0363   -0.7095   -0.5010 C.3       1 <0>        -0.0011
      5 C4         -1.0746   -2.2315   -0.3489 C.3       1 <0>         0.0197
      6 O1         -0.7586   -2.5835    0.9996 O.3       1 <0>        -0.2766
      7 C5         -0.7491   -3.9052    1.3049 C.2       1 <0>         0.1658
      8 C6         -0.4793   -4.4259    2.5229 C.2       1 <0>        -0.1806
      9 C7         -0.5775   -5.8358    2.4015 C.2       1 <0>        -0.0923
     10 C8         -0.9095   -6.0893    1.0820 C.2       1 <0>         0.0568
     11 O2         -1.0117   -4.9040    0.4468 O.3       1 <0>        -0.1877
     12 C9         -1.1196   -7.4163    0.4803 C.ar      1 <0>        -0.0106
     13 C10        -2.2326   -7.6487   -0.3364 C.ar      1 <0>        -0.0989
     14 C11        -2.4242   -8.8783   -0.8925 C.ar      1 <0>        -0.0701
     15 C12        -1.5095   -9.9163   -0.6506 C.ar      1 <0>        -0.0413
     16 C13        -0.4008   -9.6829    0.1636 C.ar      1 <0>        -0.0569
     17 C14        -0.2048   -8.4469    0.7182 C.ar      1 <0>        -0.0740
     18 C15         0.4252  -10.9428    0.2688 C.3       1 <0>        -0.0841
     19 C16        -0.2935  -12.0027   -0.5768 C.3       1 <0>        -0.1142
     20 C17        -1.5105  -11.3087   -1.1382 C.2       1 <0>         0.1632
     21 N2         -2.4001  -11.8421   -1.9130 N.2       1 <0>        -0.3157
     22 O3         -2.2765  -13.1971   -2.3051 O.3       1 <0>        -0.3980
     23 C18        -0.3667   -6.8365    3.4726 C.ar      1 <0>         0.0175
     24 C19        -1.3518   -7.7826    3.7765 C.ar      1 <0>        -0.1523
     25 C20        -1.1138   -8.6966    4.7813 C.ar      1 <0>         0.1073
     26 N3          0.0230   -8.6860    5.4515 N.ar      1 <0>        -0.4781
     27 C21         0.9777   -7.8113    5.1968 C.ar      1 <0>         0.1049
     28 C22         0.8254   -6.8657    4.2047 C.ar      1 <0>        -0.1586
     29 H1          2.2322   -0.3607   -1.1399 H         1 <0>         0.1290
     30 H2          1.2130   -1.8084   -1.3233 H         1 <0>         0.1208
     31 H3          0.8694   -0.3505   -2.2849 H         1 <0>         0.1259
     32 H4          1.3326    1.5991    0.0104 H         1 <0>         0.1271
     33 H5          0.0704    1.6092   -1.2446 H         1 <0>         0.1241
     34 H6         -0.3854    1.6063    0.4760 H         1 <0>         0.1255
     35 H7         -1.7155   -0.2551    0.2203 H         1 <0>         0.1454
     36 H8         -1.3435   -0.4374   -1.5108 H         1 <0>         0.1537
     37 H9         -2.0717   -2.5962   -0.5955 H         1 <0>         0.1152
     38 H10        -0.3459   -2.6824   -1.0224 H         1 <0>         0.0937
     39 H11        -0.2351   -3.8735    3.4182 H         1 <0>         0.1656
     40 H12        -2.9393   -6.8542   -0.5254 H         1 <0>         0.1333
     41 H13        -3.2838   -9.0554   -1.5219 H         1 <0>         0.1374
     42 H14         0.6568   -8.2682    1.3443 H         1 <0>         0.1319
     43 H15         1.4269  -10.7673   -0.1235 H         1 <0>         0.0934
     44 H16         0.4813  -11.2678    1.3077 H         1 <0>         0.0943
     45 H17         0.3535  -12.3431   -1.3852 H         1 <0>         0.0982
     46 H18        -0.5933  -12.8443    0.0477 H         1 <0>         0.0990
     47 H19        -2.9876  -13.5057   -2.8833 H         1 <0>         0.4099
     48 H20        -2.2847   -7.7966    3.2325 H         1 <0>         0.1348
     49 H21        -1.8680   -9.4307    5.0232 H         1 <0>         0.1601
     50 H22         1.8923   -7.8388    5.7706 H         1 <0>         0.1604
     51 H23         1.6126   -6.1556    3.9987 H         1 <0>         0.1364
     52 H24         0.6531   -0.5680    0.6349 H         1 <0>         0.4336
@<TRIPOS>BOND
     1    1    2 1
     2    1   29 1
     3    1   30 1
     4    1   31 1
     5    2    3 1
     6    2    4 1
     7    2   52 1
     8    3   32 1
     9    3   33 1
    10    3   34 1
    11    4    5 1
    12    4   35 1
    13    4   36 1
    14    5    6 1
    15    5   37 1
    16    5   38 1
    17    6    7 1
    18    7   11 1
    19    7    8 2
    20    8    9 1
    21    8   39 1
    22    9   10 2
    23    9   23 1
    24   10   11 1
    25   10   12 1
    26   12   17 ar
    27   12   13 ar
    28   13   14 ar
    29   13   40 1
    30   14   15 ar
    31   14   41 1
    32   15   20 1
    33   15   16 ar
    34   16   17 ar
    35   16   18 1
    36   17   42 1
    37   18   19 1
    38   18   43 1
    39   18   44 1
    40   19   20 1
    41   19   45 1
    42   19   46 1
    43   20   21 2
    44   21   22 1
    45   22   47 1
    46   23   28 ar
    47   23   24 ar
    48   24   25 ar
    49   24   48 1
    50   25   26 ar
    51   25   49 1
    52   26   27 ar
    53   27   28 ar
    54   27   50 1
    55   28   51 1
@<TRIPOS>MOLECULE
CHEMBL477987
   53    57     0     0     0
SMALL
USER_CHARGES

@<TRIPOS>ATOM
      1 C1         -0.0169    1.3920    0.0097 C.ar      1 <0>        -0.0786
      2 C2          1.1638    2.0952    0.0022 C.ar      1 <0>        -0.0664
      3 C3          2.3916    1.4162   -0.0136 C.ar      1 <0>        -0.0193
      4 C4          2.4073    0.0217   -0.0213 C.ar      1 <0>        -0.0567
      5 C5          1.2214   -0.6824   -0.0133 C.ar      1 <0>        -0.0825
      6 C6          0.0021   -0.0041    0.0020 C.ar      1 <0>        -0.0534
      7 C7         -1.2685   -0.7629    0.0101 C.2       1 <0>         0.1086
      8 C8         -2.3716   -0.5072    0.8068 C.2       1 <0>         0.1158
      9 N1         -3.3107   -1.4567    0.4764 N.pl3     1 <0>        -0.4848
     10 H1         -4.1966   -1.5466    0.8611 H         1 <0>         0.4690
     11 C9         -2.7720   -2.2406   -0.4821 C.cat     1 <0>         0.3356
     12 N2         -1.5676   -1.8257   -0.7600 N.pl3     1 <0>        -0.4658
     13 C10        -3.4598   -3.4117   -1.1351 C.3       1 <0>         0.0958
     14 N3         -4.5644   -3.8690   -0.2814 N.3       1 <0>        -0.5445
     15 C11        -4.0582   -4.4282    0.9805 C.3       1 <0>        -0.0004
     16 C12        -5.2413   -4.8363    1.8625 C.3       1 <0>         0.0627
     17 O1         -6.0628   -5.7650    1.1496 O.3       1 <0>        -0.3737
     18 C13        -6.5734   -5.2528   -0.0842 C.3       1 <0>         0.0597
     19 C14        -5.4038   -4.8489   -0.9859 C.3       1 <0>         0.0196
     20 C15        -2.5118    0.5673    1.8084 C.ar      1 <0>        -0.0204
     21 C16        -1.4794    0.8476    2.7136 C.ar      1 <0>        -0.1286
     22 C17        -1.6535    1.8603    3.6325 C.ar      1 <0>         0.1170
     23 N4         -2.7721    2.5600    3.6668 N.ar      1 <0>        -0.4574
     24 C18        -3.7691    2.3294    2.8332 C.ar      1 <0>         0.1166
     25 C19        -3.6788    1.3400    1.8775 C.ar      1 <0>        -0.1474
     26 C20         3.8352   -0.4694   -0.0381 C.3       1 <0>        -0.0856
     27 C21         4.7231    0.7823   -0.0402 C.3       1 <0>        -0.1153
     28 C22         3.7675    1.9504   -0.0244 C.2       1 <0>         0.1525
     29 N5          4.0969    3.2020   -0.0206 N.2       1 <0>        -0.3051
     30 O2          5.4630    3.5746   -0.0322 O.3       1 <0>        -0.3917
     31 H2         -0.9593    1.9192    0.0260 H         1 <0>         0.1369
     32 H3          1.1466    3.1751    0.0082 H         1 <0>         0.1445
     33 H4          1.2366   -1.7623   -0.0192 H         1 <0>         0.1336
     34 H5         -3.8524   -3.1077   -2.1054 H         1 <0>         0.1437
     35 H6         -2.7452   -4.2235   -1.2704 H         1 <0>         0.1029
     36 H7         -3.4425   -5.3027    0.7701 H         1 <0>         0.0652
     37 H8         -3.4607   -3.6775    1.4976 H         1 <0>         0.0775
     38 H9         -4.8709   -5.3038    2.7748 H         1 <0>         0.1086
     39 H10        -5.8271   -3.9531    2.1172 H         1 <0>         0.0633
     40 H11        -7.1664   -6.0215   -0.5797 H         1 <0>         0.1123
     41 H12        -7.1979   -4.3817    0.1139 H         1 <0>         0.0667
     42 H13        -5.7885   -4.4053   -1.9041 H         1 <0>         0.1021
     43 H14        -4.8096   -5.7301   -1.2278 H         1 <0>         0.0627
     44 H15        -0.5617    0.2787    2.6919 H         1 <0>         0.1456
     45 H16        -0.8637    2.0840    4.3344 H         1 <0>         0.1713
     46 H17        -4.6664    2.9270    2.8979 H         1 <0>         0.1712
     47 H18        -4.4968    1.1600    1.1957 H         1 <0>         0.1420
     48 H19         4.0353   -1.0686    0.8502 H         1 <0>         0.0973
     49 H20         4.0176   -1.0590   -0.9366 H         1 <0>         0.0965
     50 H21         5.3544    0.7989    0.8482 H         1 <0>         0.1012
     51 H22         5.3366    0.8084   -0.9408 H         1 <0>         0.1008
     52 H23         5.6100    4.5303   -0.0283 H         1 <0>         0.4136
     53 H24        -0.9770   -2.2232   -1.4188 H         1 <0>         0.4651
@<TRIPOS>BOND
     1    1    6 ar
     2    1    2 ar
     3    1   31 1
     4    2    3 ar
     5    2   32 1
     6    3   28 1
     7    3    4 ar
     8    4    5 ar
     9    4   26 1
    10    5    6 ar
    11    5   33 1
    12    6    7 1
    13    7   12 1
    14    7    8 2
    15    8    9 1
    16    8   20 1
    17    9   10 1
    18    9   11 1
    19   11   12 2
    20   11   13 1
    21   12   53 1
    22   13   14 1
    23   13   34 1
    24   13   35 1
    25   14   19 1
    26   14   15 1
    27   15   16 1
    28   15   36 1
    29   15   37 1
    30   16   17 1
    31   16   38 1
    32   16   39 1
    33   17   18 1
    34   18   19 1
    35   18   40 1
    36   18   41 1
    37   19   42 1
    38   19   43 1
    39   20   25 ar
    40   20   21 ar
    41   21   22 ar
    42   21   44 1
    43   22   23 ar
    44   22   45 1
    45   23   24 ar
    46   24   25 ar
    47   24   46 1
    48   25   47 1
    49   26   27 1
    50   26   48 1
    51   26   49 1
    52   27   28 1
    53   27   50 1
    54   27   51 1
    55   28   29 2
    56   29   30 1
    57   30   52 1
@<TRIPOS>MOLECULE
CHEMBL477987__1
   52    56     0     0     0
SMALL
USER_CHARGES

@<TRIPOS>ATOM
      1 C1          0.0832    1.3090    0.0463 C.ar      1 <0>        -0.0935
      2 C2          1.2762    1.9673   -0.0167 C.ar      1 <0>        -0.0635
      3 C3          2.4669    1.2562   -0.2330 C.ar      1 <0>        -0.0561
      4 C4          2.4244   -0.1300   -0.3835 C.ar      1 <0>        -0.0577
      5 C5          1.2268   -0.7905   -0.3209 C.ar      1 <0>        -0.1009
      6 C6          0.0429   -0.0804   -0.1049 C.ar      1 <0>         0.0018
      7 C7         -1.2459   -0.7945   -0.0375 C.2       1 <0>         0.0409
      8 C8         -2.4193   -0.4555   -0.6897 C.2       1 <0>         0.0596
      9 N1         -3.3471   -1.3706   -0.3529 N.2       1 <0>        -0.4448
     10 H1         -0.9014   -2.4232    1.2438 H         1 <0>         0.4219
     11 C9         -2.8233   -2.2454    0.4594 C.2       1 <0>         0.2311
     12 N2         -1.5218   -1.9341    0.6810 N.pl3     1 <0>        -0.5566
     13 C10        -3.5500   -3.4230    1.0562 C.3       1 <0>         0.1393
     14 N3         -4.2611   -2.9964    2.2688 N.3       1 <0>        -0.5282
     15 C11        -3.3151   -2.6061    3.3244 C.3       1 <0>         0.0139
     16 C12        -4.0963   -2.1132    4.5454 C.3       1 <0>         0.0650
     17 O1         -4.9950   -3.1389    4.9760 O.3       1 <0>        -0.3836
     18 C13        -5.9307   -3.5429    3.9727 C.3       1 <0>         0.0626
     19 C14        -5.1682   -4.0503    2.7460 C.3       1 <0>         0.0193
     20 C15        -2.6173    0.7017   -1.5913 C.ar      1 <0>         0.0416
     21 C16        -1.6464    1.0512   -2.5367 C.ar      1 <0>        -0.1545
     22 C17        -1.8717    2.1368   -3.3566 C.ar      1 <0>         0.1008
     23 N4         -2.9834    2.8411   -3.2582 N.ar      1 <0>        -0.4842
     24 C18        -3.9240    2.5458   -2.3809 C.ar      1 <0>         0.0995
     25 C19        -3.7833    1.4731   -1.5259 C.ar      1 <0>        -0.1460
     26 C20         3.8217   -0.6594   -0.6022 C.3       1 <0>        -0.0832
     27 C21         4.7552    0.5583   -0.5722 C.3       1 <0>        -0.1137
     28 C22         3.8550    1.7466   -0.3363 C.2       1 <0>         0.1690
     29 N5          4.2343    2.9805   -0.2413 N.2       1 <0>        -0.3197
     30 O2          5.6060    3.3107   -0.3607 O.3       1 <0>        -0.4032
     31 H2         -0.8296    1.8604    0.2173 H         1 <0>         0.1322
     32 H3          1.3048    3.0406    0.1000 H         1 <0>         0.1347
     33 H4          1.1971   -1.8637   -0.4379 H         1 <0>         0.1270
     34 H5         -4.2665   -3.8124    0.3329 H         1 <0>         0.1136
     35 H6         -2.8316   -4.2020    1.3114 H         1 <0>         0.0558
     36 H7         -2.7069   -3.4662    3.6043 H         1 <0>         0.0451
     37 H8         -2.6703   -1.8072    2.9581 H         1 <0>         0.0805
     38 H9         -3.4011   -1.8766    5.3509 H         1 <0>         0.0991
     39 H10        -4.6630   -1.2210    4.2790 H         1 <0>         0.0620
     40 H11        -6.5624   -4.3404    4.3642 H         1 <0>         0.1022
     41 H12        -6.5508   -2.6923    3.6898 H         1 <0>         0.0632
     42 H13        -5.8761   -4.3057    1.9574 H         1 <0>         0.0935
     43 H14        -4.5896   -4.9335    3.0166 H         1 <0>         0.0472
     44 H15        -0.7341    0.4795   -2.6225 H         1 <0>         0.1321
     45 H16        -1.1282    2.4145   -4.0890 H         1 <0>         0.1563
     46 H17        -4.8182    3.1497   -2.3350 H         1 <0>         0.1579
     47 H18        -4.5593    1.2341   -0.8138 H         1 <0>         0.1384
     48 H19         4.0875   -1.3543    0.1943 H         1 <0>         0.0906
     49 H20         3.8862   -1.1565   -1.5701 H         1 <0>         0.0919
     50 H21         5.4747    0.4624    0.2409 H         1 <0>         0.0958
     51 H22         5.2732    0.6605   -1.5258 H         1 <0>         0.0966
     52 H23         5.7919    4.2559   -0.2760 H         1 <0>         0.4078
@<TRIPOS>BOND
     1    1    6 ar
     2    1    2 ar
     3    1   31 1
     4    2    3 ar
     5    2   32 1
     6    3   28 1
     7    3    4 ar
     8    4    5 ar
     9    4   26 1
    10    5    6 ar
    11    5   33 1
    12    6    7 1
    13    7    8 2
    14    7   12 1
    15    8    9 1
    16    8   20 1
    17    9   11 2
    18   10   12 1
    19   11   13 1
    20   11   12 1
    21   13   14 1
    22   13   34 1
    23   13   35 1
    24   14   19 1
    25   14   15 1
    26   15   16 1
    27   15   36 1
    28   15   37 1
    29   16   17 1
    30   16   38 1
    31   16   39 1
    32   17   18 1
    33   18   19 1
    34   18   40 1
    35   18   41 1
    36   19   42 1
    37   19   43 1
    38   20   25 ar
    39   20   21 ar
    40   21   22 ar
    41   21   44 1
    42   22   23 ar
    43   22   45 1
    44   23   24 ar
    45   24   25 ar
    46   24   46 1
    47   25   47 1
    48   26   27 1
    49   26   48 1
    50   26   49 1
    51   27   28 1
    52   27   50 1
    53   27   51 1
    54   28   29 2
    55   29   30 1
    56   30   52 1
@<TRIPOS>MOLECULE
CHEMBL477987__2
   52    56     0     0     0
SMALL
USER_CHARGES

@<TRIPOS>ATOM
      1 C1         -0.0169    1.3920    0.0097 C.ar      1 <0>        -0.1093
      2 C2          1.1638    2.0952    0.0022 C.ar      1 <0>        -0.0672
      3 C3          2.3916    1.4162   -0.0136 C.ar      1 <0>        -0.0637
      4 C4          2.4073    0.0217   -0.0213 C.ar      1 <0>        -0.0606
      5 C5          1.2214   -0.6824   -0.0133 C.ar      1 <0>        -0.0820
      6 C6          0.0021   -0.0041    0.0020 C.ar      1 <0>         0.0188
      7 C7         -1.2685   -0.7629    0.0101 C.2       1 <0>         0.0739
      8 C8         -2.4367   -0.3998    0.6584 C.2       1 <0>         0.0248
      9 N1         -3.3480   -1.3950    0.3911 N.pl3     1 <0>        -0.5532
     10 H1         -4.2652   -1.4333    0.7045 H         1 <0>         0.4215
     11 C9         -2.7306   -2.3088   -0.3880 C.2       1 <0>         0.2349
     12 N2         -1.5039   -1.9309   -0.6164 N.2       1 <0>        -0.4478
     13 C10        -3.3642   -3.5694   -0.9176 C.3       1 <0>         0.1384
     14 N3         -3.8802   -3.3267   -2.2714 N.3       1 <0>        -0.5282
     15 C11        -4.9937   -2.3671   -2.2467 C.3       1 <0>         0.0139
     16 C12        -5.4606   -2.0983   -3.6798 C.3       1 <0>         0.0649
     17 O1         -5.8258   -3.3357   -4.2969 O.3       1 <0>        -0.3835
     18 C13        -4.7645   -4.2935   -4.3386 C.3       1 <0>         0.0625
     19 C14        -4.2907   -4.5846   -2.9122 C.3       1 <0>         0.0195
     20 C15        -2.6595    0.8109    1.4721 C.ar      1 <0>         0.0261
     21 C16        -1.7102    1.2308    2.4136 C.ar      1 <0>        -0.1434
     22 C17        -1.9597    2.3678    3.1521 C.ar      1 <0>         0.1073
     23 N4         -3.0728    3.0563    2.9819 N.ar      1 <0>        -0.4798
     24 C18        -3.9929    2.6965    2.1067 C.ar      1 <0>         0.1065
     25 C19        -3.8235    1.5764    1.3211 C.ar      1 <0>        -0.1670
     26 C20         3.8352   -0.4694   -0.0381 C.3       1 <0>        -0.0825
     27 C21         4.7231    0.7823   -0.0402 C.3       1 <0>        -0.1139
     28 C22         3.7675    1.9504   -0.0244 C.2       1 <0>         0.1734
     29 N5          4.0969    3.2020   -0.0206 N.2       1 <0>        -0.3250
     30 O2          5.4630    3.5746   -0.0322 O.3       1 <0>        -0.4058
     31 H2         -0.9593    1.9192    0.0260 H         1 <0>         0.1262
     32 H3          1.1466    3.1751    0.0082 H         1 <0>         0.1306
     33 H4          1.2366   -1.7623   -0.0192 H         1 <0>         0.1344
     34 H5         -2.6195   -4.3646   -0.9498 H         1 <0>         0.1142
     35 H6         -4.1845   -3.8661   -0.2639 H         1 <0>         0.0559
     36 H7         -5.8185   -2.7815   -1.6669 H         1 <0>         0.0453
     37 H8         -4.6605   -1.4345   -1.7915 H         1 <0>         0.0796
     38 H9         -6.3228   -1.4317   -3.6627 H         1 <0>         0.0992
     39 H10        -4.6522   -1.6344   -4.2449 H         1 <0>         0.0621
     40 H11        -5.1234   -5.2146   -4.7980 H         1 <0>         0.1024
     41 H12        -3.9359   -3.8934   -4.9229 H         1 <0>         0.0633
     42 H13        -3.4442   -5.2706   -2.9428 H         1 <0>         0.0937
     43 H14        -5.1042   -5.0344   -2.3431 H         1 <0>         0.0473
     44 H15        -0.7975    0.6721    2.5587 H         1 <0>         0.1401
     45 H16        -1.2343    2.6997    3.8802 H         1 <0>         0.1616
     46 H17        -4.8889    3.2901    2.0015 H         1 <0>         0.1598
     47 H18        -4.5785    1.2905    0.6037 H         1 <0>         0.1325
     48 H19         4.0353   -1.0686    0.8502 H         1 <0>         0.0906
     49 H20         4.0176   -1.0590   -0.9366 H         1 <0>         0.0912
     50 H21         5.3544    0.7989    0.8482 H         1 <0>         0.0951
     51 H22         5.3366    0.8084   -0.9408 H         1 <0>         0.0951
     52 H23         5.6100    4.5303   -0.0283 H         1 <0>         0.4061
@<TRIPOS>BOND
     1    1    6 ar
     2    1    2 ar
     3    1   31 1
     4    2    3 ar
     5    2   32 1
     6    3   28 1
     7    3    4 ar
     8    4    5 ar
     9    4   26 1
    10    5    6 ar
    11    5   33 1
    12    6    7 1
    13    7   12 1
    14    7    8 2
    15    8    9 1
    16    8   20 1
    17    9   10 1
    18    9   11 1
    19   11   12 2
    20   11   13 1
    21   13   14 1
    22   13   34 1
    23   13   35 1
    24   14   19 1
    25   14   15 1
    26   15   16 1
    27   15   36 1
    28   15   37 1
    29   16   17 1
    30   16   38 1
    31   16   39 1
    32   17   18 1
    33   18   19 1
    34   18   40 1
    35   18   41 1
    36   19   42 1
    37   19   43 1
    38   20   25 ar
    39   20   21 ar
    40   21   22 ar
    41   21   44 1
    42   22   23 ar
    43   22   45 1
    44   23   24 ar
    45   24   25 ar
    46   24   46 1
    47   25   47 1
    48   26   27 1
    49   26   48 1
    50   26   49 1
    51   27   28 1
    52   27   50 1
    53   27   51 1
    54   28   29 2
    55   29   30 1
    56   30   52 1
@<TRIPOS>MOLECULE
CHEMBL477149
   52    56     0     0     0
SMALL
USER_CHARGES

@<TRIPOS>ATOM
      1 C1         -0.2970    1.5929   -0.1755 C.ar      1 <0>        -0.1064
      2 C2          0.8077    2.4049   -0.2705 C.ar      1 <0>        -0.0662
      3 C3          2.0913    1.8454   -0.3592 C.ar      1 <0>        -0.0539
      4 C4          2.2403    0.4589   -0.3498 C.ar      1 <0>        -0.0587
      5 C5          1.1305   -0.3543   -0.2540 C.ar      1 <0>        -0.0954
      6 C6         -0.1446    0.2053   -0.1665 C.ar      1 <0>        -0.0083
      7 C7         -1.3336   -0.6708   -0.0648 C.2       1 <0>        -0.1056
      8 C8         -1.7088   -1.7059   -0.9608 C.2       1 <0>        -0.1617
      9 C9         -2.8483   -2.2409   -0.4892 C.2       1 <0>        -0.0276
     10 O1         -3.2027   -1.6055    0.6387 O.3       1 <0>        -0.1592
     11 C10        -2.2990   -0.6490    0.9258 C.2       1 <0>         0.0533
     12 C11        -2.3341    0.2603    2.0859 C.ar      1 <0>         0.0162
     13 C12        -3.5149    0.9252    2.4451 C.ar      1 <0>        -0.1520
     14 C13        -3.5018    1.7662    3.5372 C.ar      1 <0>         0.1061
     15 N1         -2.3993    1.9486    4.2396 N.ar      1 <0>        -0.4710
     16 C14        -1.2664    1.3429    3.9366 C.ar      1 <0>         0.1101
     17 C15        -1.1892    0.4801    2.8644 C.ar      1 <0>        -0.1374
     18 C16        -3.6082   -3.3755   -1.1266 C.3       1 <0>        -0.0090
     19 C17        -5.0243   -2.9100   -1.4777 C.3       1 <0>        -0.1476
     20 C18        -5.8151   -4.0879   -2.0510 C.3       1 <0>        -0.0059
     21 N2         -5.8851   -5.1652   -1.0566 N.4       1 <0>        -0.5071
     22 C19        -4.5356   -5.6654   -0.7683 C.3       1 <0>        -0.0059
     23 C20        -3.6955   -4.5482   -0.1457 C.3       1 <0>        -0.1475
     24 C21         3.7047    0.1053   -0.4547 C.3       1 <0>        -0.0832
     25 C22         4.4664    1.4354   -0.5316 C.3       1 <0>        -0.1147
     26 C23         3.4060    2.5076   -0.4678 C.2       1 <0>         0.1653
     27 N3          3.6133    3.7846   -0.5019 N.2       1 <0>        -0.3186
     28 O2          4.9337    4.2849   -0.6086 O.3       1 <0>        -0.4006
     29 H1         -1.2827    2.0284   -0.1034 H         1 <0>         0.1264
     30 H2          0.6872    3.4781   -0.2774 H         1 <0>         0.1329
     31 H3          1.2488   -1.4278   -0.2470 H         1 <0>         0.1294
     32 H4         -1.1793   -2.0063   -1.8529 H         1 <0>         0.1585
     33 H5         -4.4206    0.7811    1.8748 H         1 <0>         0.1377
     34 H6         -4.4062    2.2833    3.8218 H         1 <0>         0.1637
     35 H7         -0.3888    1.5223    4.5400 H         1 <0>         0.1652
     36 H8         -0.2601   -0.0159    2.6255 H         1 <0>         0.1403
     37 H9         -3.0934   -3.6955   -2.0325 H         1 <0>         0.1186
     38 H10        -5.5196   -2.5418   -0.5793 H         1 <0>         0.0948
     39 H11        -4.9719   -2.1118   -2.2182 H         1 <0>         0.1184
     40 H12        -6.8237   -3.7598   -2.3023 H         1 <0>         0.1377
     41 H13        -5.3190   -4.4550   -2.9495 H         1 <0>         0.1341
     42 H14        -6.3000   -4.8114   -0.2076 H         1 <0>         0.4292
     43 H15        -4.5996   -6.5021   -0.0726 H         1 <0>         0.1377
     44 H16        -4.0668   -5.9990   -1.6941 H         1 <0>         0.1341
     45 H17        -2.6934   -4.9212    0.0659 H         1 <0>         0.1183
     46 H18        -4.1633   -4.2141    0.7804 H         1 <0>         0.0948
     47 H19         4.0183   -0.4550    0.4261 H         1 <0>         0.0920
     48 H20         3.8844   -0.4814   -1.3555 H         1 <0>         0.0915
     49 H21         5.1492    1.5288    0.3129 H         1 <0>         0.0972
     50 H22         5.0151    1.5024   -1.4710 H         1 <0>         0.0968
     51 H23         4.9883    5.2502   -0.6266 H         1 <0>         0.4093
     52 H24        -6.4519   -5.9181   -1.4171 H         1 <0>         0.4340
@<TRIPOS>BOND
     1    1    6 ar
     2    1    2 ar
     3    1   29 1
     4    2    3 ar
     5    2   30 1
     6    3   26 1
     7    3    4 ar
     8    4    5 ar
     9    4   24 1
    10    5    6 ar
    11    5   31 1
    12    6    7 1
    13    7   11 2
    14    7    8 1
    15    8    9 2
    16    8   32 1
    17    9   10 1
    18    9   18 1
    19   10   11 1
    20   11   12 1
    21   12   17 ar
    22   12   13 ar
    23   13   14 ar
    24   13   33 1
    25   14   15 ar
    26   14   34 1
    27   15   16 ar
    28   16   17 ar
    29   16   35 1
    30   17   36 1
    31   18   23 1
    32   18   19 1
    33   18   37 1
    34   19   20 1
    35   19   38 1
    36   19   39 1
    37   20   21 1
    38   20   40 1
    39   20   41 1
    40   21   22 1
    41   21   42 1
    42   21   52 1
    43   22   23 1
    44   22   43 1
    45   22   44 1
    46   23   45 1
    47   23   46 1
    48   24   25 1
    49   24   47 1
    50   24   48 1
    51   25   26 1
    52   25   49 1
    53   25   50 1
    54   26   27 2
    55   27   28 1
    56   28   51 1
@<TRIPOS>MOLECULE
CHEMBL514536
   53    56     0     0     0
SMALL
NO_CHARGES

@<TRIPOS>ATOM
      1 C1         -0.0178    1.4648    0.0101 C.3       1 <0>        -0.0606
      2 N1          0.0021   -0.0041    0.0020 N.4       1 <0>        -0.3788
      3 C2         -1.3761   -0.5125    0.0124 C.3       1 <0>        -0.0539
      4 C3          0.6897   -0.4778   -1.2066 C.3       1 <0>        -0.0135
      5 C4          2.1588   -0.0534   -1.1571 C.3       1 <0>         0.0445
      6 O1          2.8089   -0.7134   -0.0690 O.3       1 <0>        -0.3221
      7 C5          4.1226   -0.4454    0.1156 C.2       1 <0>         0.2694
      8 C6          4.9484   -1.0328    1.1724 C.2       1 <0>        -0.2369
      9 C7          6.2034   -0.5552    1.0721 C.2       1 <0>        -0.1904
     10 C8          6.1942    0.3902   -0.1088 C.3       1 <0>         0.1709
     11 N2          4.8200    0.3630   -0.6248 N.2       1 <0>        -0.6116
     12 H1          6.8890    0.0441   -0.8740 H         1 <0>         0.0748
     13 C9          6.5610    1.7826    0.3357 C.ar      1 <0>        -0.0266
     14 C10         5.6107    2.5875    0.9388 C.ar      1 <0>        -0.1089
     15 C11         5.9412    3.8612    1.3464 C.ar      1 <0>        -0.0737
     16 C12         7.2416    4.3460    1.1518 C.ar      1 <0>        -0.0971
     17 C13         8.1915    3.5293    0.5447 C.ar      1 <0>        -0.0605
     18 C14         7.8475    2.2508    0.1451 C.ar      1 <0>        -0.1117
     19 C15         9.5059    4.2657    0.4459 C.3       1 <0>        -0.0815
     20 C16         9.2740    5.6507    1.0651 C.3       1 <0>        -0.1129
     21 C17         7.8278    5.6570    1.4981 C.2       1 <0>         0.1823
     22 N3          7.2104    6.6381    2.0716 N.2       1 <0>        -0.3423
     23 O2          7.8991    7.8445    2.3458 O.3       1 <0>        -0.4140
     24 C18         7.3508   -0.8853    1.9364 C.ar      1 <0>         0.0202
     25 C19         7.9414    0.0884    2.7532 C.ar      1 <0>        -0.1807
     26 C20         9.0132   -0.2654    3.5465 C.ar      1 <0>         0.0922
     27 N4          9.4815   -1.4986    3.5426 N.ar      1 <0>        -0.5238
     28 C21         8.9561   -2.4458    2.7896 C.ar      1 <0>         0.0916
     29 C22         7.8785   -2.1831    1.9692 C.ar      1 <0>        -0.1890
     30 H2          1.0047    1.8421    0.0024 H         1 <0>         0.1168
     31 H3         -0.5450    1.8259   -0.8730 H         1 <0>         0.1117
     32 H4         -0.5280    1.8163    0.9069 H         1 <0>         0.1127
     33 H5         -1.9033   -0.1515   -0.8706 H         1 <0>         0.1106
     34 H6         -1.3613   -1.6024    0.0065 H         1 <0>         0.1126
     35 H7         -1.8863   -0.1610    0.9092 H         1 <0>         0.1119
     36 H8          0.6270   -1.5648   -1.2578 H         1 <0>         0.1270
     37 H9          0.2158   -0.0447   -2.0875 H         1 <0>         0.1328
     38 H10         2.6477   -0.3267   -2.0922 H         1 <0>         0.0935
     39 H11         2.2206    1.0258   -1.0166 H         1 <0>         0.0776
     40 H12         4.6051   -1.7378    1.9150 H         1 <0>         0.1094
     41 H13         4.6077    2.2165    1.0900 H         1 <0>         0.1147
     42 H14         5.1970    4.4872    1.8162 H         1 <0>         0.1166
     43 H15         8.5865    1.6166   -0.3219 H         1 <0>         0.1189
     44 H16        10.2766    3.7317    1.0018 H         1 <0>         0.0865
     45 H17         9.8002    4.3675   -0.5987 H         1 <0>         0.0848
     46 H18         9.9267    5.7935    1.9263 H         1 <0>         0.0913
     47 H19         9.4497    6.4301    0.3237 H         1 <0>         0.0903
     48 H20         7.3554    8.5189    2.7756 H         1 <0>         0.4011
     49 H21         7.5635    1.1001    2.7613 H         1 <0>         0.1180
     50 H22         9.4755    0.4777    4.1792 H         1 <0>         0.1387
     51 H23         9.3727   -3.4418    2.8189 H         1 <0>         0.1400
     52 H24         7.4508   -2.9646    1.3586 H         1 <0>         0.1182
     53 H25         0.4901   -0.3383    0.8195 H         1 <0>         0.4086
@<TRIPOS>BOND
     1    1    2 1
     2    1   30 1
     3    1   31 1
     4    1   32 1
     5    2    3 1
     6    2    4 1
     7    2   53 1
     8    3   33 1
     9    3   34 1
    10    3   35 1
    11    4    5 1
    12    4   36 1
    13    4   37 1
    14    5   38 1
    15    5   39 1
    16    5    6 1
    17    6    7 1
    18    7   11 2
    19    7    8 1
    20    8   40 1
    21    8    9 2
    22    9   10 1
    23    9   24 1
    24   10   13 1
    25   10   12 1
    26   10   11 1
    27   13   18 ar
    28   13   14 ar
    29   14   15 ar
    30   14   41 1
    31   15   16 ar
    32   15   42 1
    33   16   21 1
    34   16   17 ar
    35   17   18 ar
    36   17   19 1
    37   18   43 1
    38   19   20 1
    39   19   44 1
    40   19   45 1
    41   20   21 1
    42   20   46 1
    43   20   47 1
    44   21   22 2
    45   22   23 1
    46   23   48 1
    47   24   29 ar
    48   24   25 ar
    49   25   26 ar
    50   25   49 1
    51   26   27 ar
    52   26   50 1
    53   27   28 ar
    54   28   29 ar
    55   28   51 1
    56   29   52 1
@<TRIPOS>MOLECULE
CHEMBL514536__1
   53    56     0     0     0
SMALL
USER_CHARGES

@<TRIPOS>ATOM
      1 C1         -0.0178    1.4648    0.0101 C.3       1 <0>        -0.0544
      2 N1          0.0021   -0.0041    0.0020 N.4       1 <0>        -0.3891
      3 C2         -1.3761   -0.5125    0.0124 C.3       1 <0>        -0.0476
      4 C3          0.6897   -0.4778   -1.2066 C.3       1 <0>         0.0014
      5 C4          2.1588   -0.0534   -1.1571 C.3       1 <0>         0.0162
      6 O1          2.8089   -0.7134   -0.0690 O.3       1 <0>        -0.3012
      7 C5          4.1263   -0.4446    0.1161 C.2       1 <0>         0.2012
      8 C6          4.9088   -0.9760    1.0852 C.2       1 <0>        -0.1680
      9 C7          6.2083   -0.4395    0.9303 C.2       1 <0>        -0.0803
     10 C8          6.1619    0.4202   -0.1569 C.2       1 <0>         0.0839
     11 N2          4.8776    0.3998   -0.6475 N.pl3     1 <0>        -0.5717
     12 H1          4.5573    0.9056   -1.4107 H         1 <0>         0.4153
     13 C9          7.2857    1.2074   -0.6927 C.ar      1 <0>        -0.0115
     14 C10         8.1333    1.9027    0.1774 C.ar      1 <0>        -0.0922
     15 C11         9.1726    2.6304   -0.3211 C.ar      1 <0>        -0.0649
     16 C12         9.3984    2.6872   -1.7062 C.ar      1 <0>        -0.0488
     17 C13         8.5524    1.9934   -2.5718 C.ar      1 <0>        -0.0587
     18 C14         7.5123    1.2574   -2.0713 C.ar      1 <0>        -0.1023
     19 C15         8.9988    2.2093   -3.9982 C.3       1 <0>        -0.0833
     20 C16        10.2296    3.1235   -3.9323 C.3       1 <0>        -0.1145
     21 C17        10.4447    3.3994   -2.4641 C.2       1 <0>         0.1629
     22 N3         11.3834    4.1335   -1.9580 N.2       1 <0>        -0.3155
     23 O2         12.3262    4.7620   -2.8073 O.3       1 <0>        -0.3996
     24 C18         7.3917   -0.7384    1.7684 C.ar      1 <0>         0.0265
     25 C19         8.6139   -1.0932    1.1864 C.ar      1 <0>        -0.1563
     26 C20         9.6905   -1.3634    2.0045 C.ar      1 <0>         0.1050
     27 N4          9.5788   -1.2915    3.3175 N.ar      1 <0>        -0.4828
     28 C21         8.4450   -0.9608    3.9066 C.ar      1 <0>         0.1029
     29 C22         7.3204   -0.6684    3.1642 C.ar      1 <0>        -0.1623
     30 H2          1.0047    1.8421    0.0024 H         1 <0>         0.1193
     31 H3         -0.5450    1.8259   -0.8730 H         1 <0>         0.1251
     32 H4         -0.5280    1.8163    0.9069 H         1 <0>         0.1293
     33 H5         -1.9033   -0.1515   -0.8706 H         1 <0>         0.1234
     34 H6         -1.3613   -1.6024    0.0065 H         1 <0>         0.1260
     35 H7         -1.8863   -0.1610    0.9092 H         1 <0>         0.1273
     36 H8          0.6270   -1.5648   -1.2578 H         1 <0>         0.1459
     37 H9          0.2158   -0.0447   -2.0875 H         1 <0>         0.1513
     38 H10         2.6477   -0.3267   -2.0922 H         1 <0>         0.1067
     39 H11         2.2206    1.0258   -1.0166 H         1 <0>         0.0848
     40 H12         4.5967   -1.6819    1.8407 H         1 <0>         0.1536
     41 H13         7.9638    1.8630    1.2432 H         1 <0>         0.1323
     42 H14         9.8253    3.1662    0.3522 H         1 <0>         0.1355
     43 H15         6.8619    0.7178   -2.7438 H         1 <0>         0.1246
     44 H16         9.2647    1.2562   -4.4554 H         1 <0>         0.0925
     45 H17         8.2053    2.6907   -4.5699 H         1 <0>         0.0901
     46 H18        11.0988    2.6175   -4.3526 H         1 <0>         0.0979
     47 H19        10.0381    4.0537   -4.4672 H         1 <0>         0.0968
     48 H20        12.9881    5.2886   -2.3386 H         1 <0>         0.4101
     49 H21         8.7123   -1.1547    0.1127 H         1 <0>         0.1324
     50 H22        10.6379   -1.6381    1.5647 H         1 <0>         0.1570
     51 H23         8.3986   -0.9146    4.9846 H         1 <0>         0.1578
     52 H24         6.3972   -0.3937    3.6528 H         1 <0>         0.1350
     53 H25         0.4901   -0.3383    0.8195 H         1 <0>         0.4351
@<TRIPOS>BOND
     1    1    2 1
     2    1   30 1
     3    1   31 1
     4    1   32 1
     5    2    3 1
     6    2    4 1
     7    2   53 1
     8    3   33 1
     9    3   34 1
    10    3   35 1
    11    4    5 1
    12    4   36 1
    13    4   37 1
    14    5    6 1
    15    5   38 1
    16    5   39 1
    17    6    7 1
    18    7   11 1
    19    7    8 2
    20    8    9 1
    21    8   40 1
    22    9   10 2
    23    9   24 1
    24   10   11 1
    25   10   13 1
    26   11   12 1
    27   13   18 ar
    28   13   14 ar
    29   14   15 ar
    30   14   41 1
    31   15   16 ar
    32   15   42 1
    33   16   21 1
    34   16   17 ar
    35   17   18 ar
    36   17   19 1
    37   18   43 1
    38   19   20 1
    39   19   44 1
    40   19   45 1
    41   20   21 1
    42   20   46 1
    43   20   47 1
    44   21   22 2
    45   22   23 1
    46   23   48 1
    47   24   29 ar
    48   24   25 ar
    49   25   26 ar
    50   25   49 1
    51   26   27 ar
    52   26   50 1
    53   27   28 ar
    54   28   29 ar
    55   28   51 1
    56   29   52 1
@<TRIPOS>MOLECULE
CHEMBL571112
   63    69     0     0     0
SMALL
USER_CHARGES

@<TRIPOS>ATOM
      1 C1         -0.0178    1.4648    0.0101 C.3       1 <0>        -0.0089
      2 N1          0.0021   -0.0041    0.0020 N.3       1 <0>        -0.4786
      3 C2         -1.3685   -0.5564    0.1656 C.3       1 <0>         0.0792
      4 C3         -2.0841    0.2638    1.2377 C.3       1 <0>        -0.0871
      5 C4         -1.1887    0.5005    2.4261 C.2       1 <0>        -0.1841
      6 C5         -1.7293    1.1015    3.5758 C.2       1 <0>         0.1813
      7 N2         -0.9978    1.3438    4.6456 N.2       1 <0>        -0.4326
      8 C6          0.2972    1.0051    4.6185 C.2       1 <0>         0.2644
      9 C7          1.2974    1.1371    5.5696 C.2       1 <0>        -0.1770
     10 C8          2.4797    0.6111    5.0044 C.2       1 <0>         0.1685
     11 N3          2.2097    0.1839    3.7808 N.2       1 <0>        -0.2865
     12 N4          0.8687    0.4099    3.5081 N.pl3     1 <0>        -0.2927
     13 C9          0.1190    0.1457    2.4022 C.2       1 <0>         0.1753
     14 C10         0.7187   -0.5348    1.1952 C.3       1 <0>         0.1103
     15 C11         0.2591   -2.0156    1.2674 C.3       1 <0>        -0.0852
     16 C12        -1.1566   -2.0021    0.6523 C.3       1 <0>        -0.5842
     17 S1         -1.2477   -3.1565   -0.7440 S.o2      1 <0>         2.5053
     18 O1         -2.5718   -3.1997   -1.2578 O.2       1 <0>        -0.9306
     19 O2         -0.1397   -2.9626   -1.6124 O.2       1 <0>        -0.9116
     20 C13        -0.9889   -4.7479   -0.0334 C.ar      1 <0>        -0.6620
     21 C14         0.2922   -5.2549    0.0785 C.ar      1 <0>        -0.0238
     22 C15         0.4952   -6.5034    0.6360 C.ar      1 <0>        -0.1380
     23 C16        -0.5829   -7.2448    1.0820 C.ar      1 <0>        -0.0623
     24 C17        -1.8639   -6.7375    0.9709 C.ar      1 <0>        -0.1385
     25 C18        -2.0666   -5.4871    0.4173 C.ar      1 <0>        -0.0252
     26 C19         3.8029    0.5479    5.6703 C.ar      1 <0>         0.0194
     27 C20         4.2146    1.5560    6.5472 C.ar      1 <0>        -0.1381
     28 C21         5.4539    1.4578    7.1454 C.ar      1 <0>         0.1056
     29 N5          6.2454    0.4314    6.8989 N.ar      1 <0>        -0.4736
     30 C22         5.8953   -0.5406    6.0785 C.ar      1 <0>         0.1020
     31 C23         4.6708   -0.5245    5.4430 C.ar      1 <0>        -0.1407
     32 C24         1.1532    1.7201    6.9225 C.ar      1 <0>         0.0253
     33 C25         0.8340    3.0704    7.0724 C.ar      1 <0>        -0.0956
     34 C26         0.6997    3.6111    8.3348 C.ar      1 <0>        -0.0923
     35 C27         0.8810    2.8182    9.4541 C.ar      1 <0>        -0.0619
     36 C28         1.1993    1.4732    9.3138 C.ar      1 <0>         0.1212
     37 C29         1.3300    0.9204    8.0511 C.ar      1 <0>        -0.1162
     38 O3          1.3768    0.6984   10.4164 O.3       1 <0>        -0.4852
     39 Cl1         0.7108    3.5063   11.0388 Cl        1 <0>        -0.0550
     40 H1          1.0047    1.8421    0.0024 H         1 <0>         0.0793
     41 H2         -0.5450    1.8259   -0.8730 H         1 <0>         0.0881
     42 H3         -0.5280    1.8163    0.9069 H         1 <0>         0.0469
     43 H4         -1.9124   -0.5384   -0.7789 H         1 <0>         0.1221
     44 H5         -2.3796    1.2242    0.8154 H         1 <0>         0.1046
     45 H6         -2.9756   -0.2726    1.5627 H         1 <0>         0.1044
     46 H7         -2.7745    1.3731    3.5831 H         1 <0>         0.1822
     47 H8          1.8000   -0.4131    1.1323 H         1 <0>         0.1441
     48 H9          0.9237   -2.6504    0.6815 H         1 <0>         0.1016
     49 H10         0.2219   -2.3535    2.3030 H         1 <0>         0.0932
     50 H11        -1.8996   -2.2601    1.4068 H         1 <0>         0.1523
     51 H12         1.1345   -4.6756   -0.2699 H         1 <0>         0.1425
     52 H13         1.4961   -6.8998    0.7229 H         1 <0>         0.1354
     53 H14        -0.4243   -8.2206    1.5169 H         1 <0>         0.1330
     54 H15        -2.7063   -7.3169    1.3190 H         1 <0>         0.1349
     55 H16        -3.0671   -5.0892    0.3338 H         1 <0>         0.1418
     56 H17         3.5721    2.3994    6.7529 H         1 <0>         0.1387
     57 H18         5.7807    2.2316    7.8242 H         1 <0>         0.1624
     58 H19         6.5746   -1.3622    5.9052 H         1 <0>         0.1623
     59 H20         4.3887   -1.3260    4.7764 H         1 <0>         0.1402
     60 H21         0.6926    3.6921    6.2006 H         1 <0>         0.1319
     61 H22         0.4527    4.6562    8.4495 H         1 <0>         0.1405
     62 H23         1.5726   -0.1262    7.9406 H         1 <0>         0.1338
     63 H24         0.5685    0.2712   10.7312 H         1 <0>         0.3936
@<TRIPOS>BOND
     1    1    2 1
     2    1   40 1
     3    1   41 1
     4    1   42 1
     5    2   14 1
     6    2    3 1
     7    3   16 1
     8    3    4 1
     9    3   43 1
    10    4    5 1
    11    4   44 1
    12    4   45 1
    13    5   13 2
    14    5    6 1
    15    6    7 2
    16    6   46 1
    17    7    8 1
    18    8   12 1
    19    8    9 2
    20    9   10 1
    21    9   32 1
    22   10   11 2
    23   10   26 1
    24   11   12 1
    25   12   13 1
    26   13   14 1
    27   14   15 1
    28   14   47 1
    29   15   16 1
    30   15   48 1
    31   15   49 1
    32   16   17 1
    33   16   50 1
    34   17   18 2
    35   17   19 2
    36   17   20 1
    37   20   25 ar
    38   20   21 ar
    39   21   22 ar
    40   21   51 1
    41   22   23 ar
    42   22   52 1
    43   23   24 ar
    44   23   53 1
    45   24   25 ar
    46   24   54 1
    47   25   55 1
    48   26   31 ar
    49   26   27 ar
    50   27   28 ar
    51   27   56 1
    52   28   29 ar
    53   28   57 1
    54   29   30 ar
    55   30   31 ar
    56   30   58 1
    57   31   59 1
    58   32   37 ar
    59   32   33 ar
    60   33   34 ar
    61   33   60 1
    62   34   35 ar
    63   34   61 1
    64   35   36 ar
    65   35   39 1
    66   36   37 ar
    67   36   38 1
    68   37   62 1
    69   38   63 1
@<TRIPOS>MOLECULE
CHEMBL571112__1
   63    69     0     0     0
SMALL
USER_CHARGES

@<TRIPOS>ATOM
      1 C1         -0.0178    1.4648    0.0101 C.3       1 <0>        -0.0114
      2 N1          0.0021   -0.0041    0.0020 N.3       1 <0>        -0.4723
      3 C2         -1.3685   -0.5564    0.1656 C.3       1 <0>         0.0851
      4 C3         -2.0841    0.2638    1.2377 C.3       1 <0>        -0.1305
      5 C4         -1.1887    0.5005    2.4261 C.2       1 <0>        -0.1416
      6 C5         -1.7293    1.1015    3.5758 C.2       1 <0>         0.2101
      7 N2         -0.9978    1.3438    4.6456 N.2       1 <0>        -0.4351
      8 C6          0.2972    1.0051    4.6185 C.2       1 <0>         0.2744
      9 C7          1.2974    1.1371    5.5696 C.2       1 <0>        -0.1864
     10 C8          2.4797    0.6111    5.0044 C.2       1 <0>         0.1656
     11 N3          2.2097    0.1839    3.7808 N.2       1 <0>        -0.2940
     12 N4          0.8687    0.4099    3.5081 N.pl3     1 <0>        -0.2878
     13 C9          0.1190    0.1457    2.4022 C.2       1 <0>         0.1541
     14 C10         0.7187   -0.5348    1.1952 C.3       1 <0>         0.1080
     15 C11         0.2591   -2.0156    1.2674 C.3       1 <0>        -0.0853
     16 C12        -1.1566   -2.0021    0.6523 C.3       1 <0>        -0.5804
     17 S1         -2.3932   -2.4315    1.9080 S.o2      1 <0>         2.4962
     18 O1         -2.2435   -1.5965    3.0480 O.2       1 <0>        -0.9253
     19 O2         -3.6660   -2.6080    1.3013 O.2       1 <0>        -0.9292
     20 C13        -1.9338   -4.0389    2.4648 C.ar      1 <0>        -0.6606
     21 C14        -2.4388   -5.1598    1.8327 C.ar      1 <0>        -0.0242
     22 C15        -2.0784   -6.4209    2.2695 C.ar      1 <0>        -0.1363
     23 C16        -1.2127   -6.5610    3.3380 C.ar      1 <0>        -0.0597
     24 C17        -0.7069   -5.4401    3.9695 C.ar      1 <0>        -0.1369
     25 C18        -1.0640   -4.1791    3.5300 C.ar      1 <0>        -0.0226
     26 C19         3.8029    0.5479    5.6703 C.ar      1 <0>         0.0228
     27 C20         4.2146    1.5560    6.5472 C.ar      1 <0>        -0.1387
     28 C21         5.4539    1.4578    7.1454 C.ar      1 <0>         0.1051
     29 N5          6.2454    0.4314    6.8989 N.ar      1 <0>        -0.4752
     30 C22         5.8953   -0.5406    6.0785 C.ar      1 <0>         0.1009
     31 C23         4.6708   -0.5245    5.4430 C.ar      1 <0>        -0.1422
     32 C24         1.1532    1.7201    6.9225 C.ar      1 <0>         0.0298
     33 C25         0.8340    3.0704    7.0724 C.ar      1 <0>        -0.0965
     34 C26         0.6997    3.6111    8.3348 C.ar      1 <0>        -0.0926
     35 C27         0.8810    2.8182    9.4541 C.ar      1 <0>        -0.0633
     36 C28         1.1993    1.4732    9.3138 C.ar      1 <0>         0.1206
     37 C29         1.3300    0.9204    8.0511 C.ar      1 <0>        -0.1168
     38 O3          1.3768    0.6984   10.4164 O.3       1 <0>        -0.4859
     39 Cl1         0.7108    3.5063   11.0388 Cl        1 <0>        -0.0571
     40 H1          1.0047    1.8421    0.0024 H         1 <0>         0.0792
     41 H2         -0.5450    1.8259   -0.8730 H         1 <0>         0.0874
     42 H3         -0.5280    1.8163    0.9069 H         1 <0>         0.0478
     43 H4         -1.9124   -0.5384   -0.7789 H         1 <0>         0.1363
     44 H5         -2.3796    1.2242    0.8154 H         1 <0>         0.1210
     45 H6         -2.9756   -0.2726    1.5627 H         1 <0>         0.0850
     46 H7         -2.7745    1.3731    3.5831 H         1 <0>         0.1781
     47 H8          1.8000   -0.4131    1.1323 H         1 <0>         0.1430
     48 H9          0.9237   -2.6504    0.6815 H         1 <0>         0.1124
     49 H10         0.2219   -2.3535    2.3030 H         1 <0>         0.0808
     50 H11        -1.2113   -2.6957   -0.1868 H         1 <0>         0.1609
     51 H12        -3.1152   -5.0503    0.9979 H         1 <0>         0.1425
     52 H13        -2.4735   -7.2966    1.7761 H         1 <0>         0.1371
     53 H14        -0.9316   -7.5463    3.6797 H         1 <0>         0.1347
     54 H15        -0.0308   -5.5496    4.8045 H         1 <0>         0.1347
     55 H16        -0.6659   -3.3033    4.0209 H         1 <0>         0.1350
     56 H17         3.5721    2.3994    6.7529 H         1 <0>         0.1388
     57 H18         5.7807    2.2316    7.8242 H         1 <0>         0.1617
     58 H19         6.5746   -1.3622    5.9052 H         1 <0>         0.1612
     59 H20         4.3887   -1.3260    4.7764 H         1 <0>         0.1394
     60 H21         0.6926    3.6921    6.2006 H         1 <0>         0.1320
     61 H22         0.4527    4.6562    8.4495 H         1 <0>         0.1397
     62 H23         1.5726   -0.1262    7.9406 H         1 <0>         0.1334
     63 H24         0.5685    0.2712   10.7312 H         1 <0>         0.3932
@<TRIPOS>BOND
     1    1    2 1
     2    1   40 1
     3    1   41 1
     4    1   42 1
     5    2   14 1
     6    2    3 1
     7    3   16 1
     8    3    4 1
     9    3   43 1
    10    4    5 1
    11    4   44 1
    12    4   45 1
    13    5   13 2
    14    5    6 1
    15    6    7 2
    16    6   46 1
    17    7    8 1
    18    8   12 1
    19    8    9 2
    20    9   10 1
    21    9   32 1
    22   10   11 2
    23   10   26 1
    24   11   12 1
    25   12   13 1
    26   13   14 1
    27   14   15 1
    28   14   47 1
    29   15   16 1
    30   15   48 1
    31   15   49 1
    32   16   17 1
    33   16   50 1
    34   17   18 2
    35   17   19 2
    36   17   20 1
    37   20   25 ar
    38   20   21 ar
    39   21   22 ar
    40   21   51 1
    41   22   23 ar
    42   22   52 1
    43   23   24 ar
    44   23   53 1
    45   24   25 ar
    46   24   54 1
    47   25   55 1
    48   26   31 ar
    49   26   27 ar
    50   27   28 ar
    51   27   56 1
    52   28   29 ar
    53   28   57 1
    54   29   30 ar
    55   30   31 ar
    56   30   58 1
    57   31   59 1
    58   32   37 ar
    59   32   33 ar
    60   33   34 ar
    61   33   60 1
    62   34   35 ar
    63   34   61 1
    64   35   36 ar
    65   35   39 1
    66   36   37 ar
    67   36   38 1
    68   37   62 1
    69   38   63 1
@<TRIPOS>MOLECULE
CHEMBL571112__2
   63    69     0     0     0
SMALL
USER_CHARGES

@<TRIPOS>ATOM
      1 C1         -0.0178    1.4648    0.0101 C.3       1 <0>         0.0074
      2 N1          0.0021   -0.0041    0.0020 N.3       1 <0>        -0.4841
      3 C2         -1.3685   -0.5564    0.1656 C.3       1 <0>         0.0882
      4 C3         -1.3348   -2.0309   -0.2330 C.3       1 <0>        -0.0890
      5 C4         -0.1355   -2.7248    0.3591 C.2       1 <0>        -0.1367
      6 C5         -0.0244   -4.1198    0.2295 C.2       1 <0>         0.2071
      7 N2          1.0036   -4.7858    0.7173 N.2       1 <0>        -0.4369
      8 C6          1.9634   -4.0979    1.3481 C.2       1 <0>         0.2790
      9 C7          3.1423   -4.5128    1.9485 C.2       1 <0>        -0.1886
     10 C8          3.7763   -3.3592    2.4595 C.2       1 <0>         0.1647
     11 N3          3.0228   -2.3058    2.1849 N.2       1 <0>        -0.2974
     12 N4          1.8922   -2.7245    1.4993 N.pl3     1 <0>        -0.2897
     13 C9          0.8291   -2.0289    1.0085 C.2       1 <0>         0.1968
     14 C10         0.7187   -0.5348    1.1952 C.3       1 <0>         0.1103
     15 C11        -0.2937   -0.3226    2.3525 C.3       1 <0>        -0.1178
     16 C12        -1.6743   -0.4165    1.6685 C.3       1 <0>        -0.6147
     17 S1         -2.5756   -1.8729    2.2661 S.o2      1 <0>         2.5033
     18 O1         -3.8756   -1.9128    1.6938 O.2       1 <0>        -0.9293
     19 O2         -1.7338   -3.0172    2.2324 O.2       1 <0>        -0.9223
     20 C13        -2.8478   -1.5653    3.9795 C.ar      1 <0>        -0.6628
     21 C14        -1.9136   -1.9751    4.9123 C.ar      1 <0>        -0.0226
     22 C15        -2.1272   -1.7337    6.2566 C.ar      1 <0>        -0.1370
     23 C16        -3.2748   -1.0822    6.6680 C.ar      1 <0>        -0.0603
     24 C17        -4.2087   -0.6717    5.7351 C.ar      1 <0>        -0.1369
     25 C18        -3.9931   -0.9092    4.3905 C.ar      1 <0>        -0.0257
     26 C19         5.0699   -3.3321    3.1836 C.ar      1 <0>         0.0239
     27 C20         5.4391   -4.3790    4.0337 C.ar      1 <0>        -0.1391
     28 C21         6.6518   -4.3135    4.6882 C.ar      1 <0>         0.1046
     29 N5          7.4570   -3.2820    4.5206 N.ar      1 <0>        -0.4758
     30 C22         7.1467   -2.2740    3.7280 C.ar      1 <0>         0.1005
     31 C23         5.9563   -2.2618    3.0307 C.ar      1 <0>        -0.1424
     32 C24         3.6419   -5.9032    2.0374 C.ar      1 <0>         0.0306
     33 C25         2.9341   -6.8557    2.7719 C.ar      1 <0>        -0.0959
     34 C26         3.4020   -8.1513    2.8527 C.ar      1 <0>        -0.0930
     35 C27         4.5723   -8.5099    2.2075 C.ar      1 <0>        -0.0635
     36 C28         5.2833   -7.5678    1.4747 C.ar      1 <0>         0.1199
     37 C29         4.8183   -6.2669    1.3828 C.ar      1 <0>        -0.1172
     38 O3          6.4327   -7.9247    0.8430 O.3       1 <0>        -0.4860
     39 Cl1         5.1545  -10.1418    2.3146 Cl        1 <0>        -0.0580
     40 H1          1.0047    1.8421    0.0024 H         1 <0>         0.0800
     41 H2         -0.5450    1.8259   -0.8730 H         1 <0>         0.0841
     42 H3         -0.5280    1.8163    0.9069 H         1 <0>         0.0417
     43 H4         -2.0887    0.0016   -0.4327 H         1 <0>         0.1295
     44 H5         -2.2422   -2.5186    0.1232 H         1 <0>         0.0788
     45 H6         -1.2918   -2.1069   -1.3195 H         1 <0>         0.1252
     46 H7         -0.8042   -4.6623   -0.2843 H         1 <0>         0.1786
     47 H8          1.6831   -0.0549    1.3619 H         1 <0>         0.1389
     48 H9         -0.1855   -1.1059    3.1026 H         1 <0>         0.0854
     49 H10        -0.1573    0.6604    2.8034 H         1 <0>         0.1055
     50 H11        -2.2513    0.4893    1.8546 H         1 <0>         0.1543
     51 H12        -1.0169   -2.4841    4.5909 H         1 <0>         0.1365
     52 H13        -1.3976   -2.0545    6.9854 H         1 <0>         0.1352
     53 H14        -3.4421   -0.8943    7.7183 H         1 <0>         0.1347
     54 H15        -5.1055   -0.1629    6.0566 H         1 <0>         0.1368
     55 H16        -4.7209   -0.5851    3.6614 H         1 <0>         0.1419
     56 H17         4.7845   -5.2261    4.1761 H         1 <0>         0.1390
     57 H18         6.9458   -5.1174    5.3469 H         1 <0>         0.1614
     58 H19         7.8357   -1.4492    3.6203 H         1 <0>         0.1609
     59 H20         5.7109   -1.4357    2.3797 H         1 <0>         0.1394
     60 H21         2.0206   -6.5788    3.2771 H         1 <0>         0.1330
     61 H22         2.8533   -8.8875    3.4214 H         1 <0>         0.1393
     62 H23         5.3675   -5.5348    0.8094 H         1 <0>         0.1336
     63 H24         6.3026   -8.2404   -0.0617 H         1 <0>         0.3930
@<TRIPOS>BOND
     1    1    2 1
     2    1   40 1
     3    1   41 1
     4    1   42 1
     5    2   14 1
     6    2    3 1
     7    3   16 1
     8    3    4 1
     9    3   43 1
    10    4    5 1
    11    4   44 1
    12    4   45 1
    13    5   13 2
    14    5    6 1
    15    6    7 2
    16    6   46 1
    17    7    8 1
    18    8   12 1
    19    8    9 2
    20    9   10 1
    21    9   32 1
    22   10   11 2
    23   10   26 1
    24   11   12 1
    25   12   13 1
    26   13   14 1
    27   14   15 1
    28   14   47 1
    29   15   16 1
    30   15   48 1
    31   15   49 1
    32   16   17 1
    33   16   50 1
    34   17   18 2
    35   17   19 2
    36   17   20 1
    37   20   25 ar
    38   20   21 ar
    39   21   22 ar
    40   21   51 1
    41   22   23 ar
    42   22   52 1
    43   23   24 ar
    44   23   53 1
    45   24   25 ar
    46   24   54 1
    47   25   55 1
    48   26   31 ar
    49   26   27 ar
    50   27   28 ar
    51   27   56 1
    52   28   29 ar
    53   28   57 1
    54   29   30 ar
    55   30   31 ar
    56   30   58 1
    57   31   59 1
    58   32   37 ar
    59   32   33 ar
    60   33   34 ar
    61   33   60 1
    62   34   35 ar
    63   34   61 1
    64   35   36 ar
    65   35   39 1
    66   36   37 ar
    67   36   38 1
    68   37   62 1
    69   38   63 1
@<TRIPOS>MOLECULE
CHEMBL571112__3
   63    69     0     0     0
SMALL
USER_CHARGES

@<TRIPOS>ATOM
      1 C1          0.0581    1.4879    0.1019 C.3       1 <0>        -0.0053
      2 N1          0.0659    0.0194    0.0636 N.3       1 <0>        -0.4911
      3 C2         -1.2983   -0.5267    0.2891 C.3       1 <0>         0.0850
      4 C3         -1.2976   -1.9931   -0.1399 C.3       1 <0>        -0.0461
      5 C4         -0.0740   -2.7070    0.3733 C.2       1 <0>        -0.1684
      6 C5          0.0190   -4.0998    0.2104 C.2       1 <0>         0.1802
      7 N2          1.0662   -4.7825    0.6291 N.2       1 <0>        -0.4352
      8 C6          2.0636   -4.1142    1.2214 C.2       1 <0>         0.2681
      9 C7          3.2696   -4.5493    1.7495 C.2       1 <0>        -0.1796
     10 C8          3.9390   -3.4106    2.2487 C.2       1 <0>         0.1673
     11 N3          3.1803   -2.3468    2.0358 N.2       1 <0>        -0.2898
     12 N4          2.0115   -2.7437    1.4034 N.pl3     1 <0>        -0.2946
     13 C9          0.9293   -2.0311    0.9840 C.2       1 <0>         0.2118
     14 C10         0.8409   -0.5403    1.2060 C.3       1 <0>         0.1106
     15 C11        -0.1067   -0.3446    2.4197 C.3       1 <0>        -0.1170
     16 C12        -1.5225   -0.4152    1.8087 C.3       1 <0>        -0.6132
     17 S1         -2.4529    1.0923    2.1992 S.o2      1 <0>         2.4922
     18 O1         -2.6657    1.1867    3.6009 O.2       1 <0>        -0.9285
     19 O2         -1.9286    2.1936    1.4702 O.2       1 <0>        -0.9207
     20 C13        -4.0557    0.8243    1.5181 C.ar      1 <0>        -0.6588
     21 C14        -4.3254    1.2022    0.2160 C.ar      1 <0>        -0.0253
     22 C15        -5.5828    0.9920   -0.3183 C.ar      1 <0>        -0.1360
     23 C16        -6.5704    0.4035    0.4492 C.ar      1 <0>        -0.0605
     24 C17        -6.3005    0.0248    1.7510 C.ar      1 <0>        -0.1362
     25 C18        -5.0418    0.2311    2.2839 C.ar      1 <0>        -0.0245
     26 C19         5.2695   -3.4071    2.9031 C.ar      1 <0>         0.0205
     27 C20         5.6752   -4.4735    3.7112 C.ar      1 <0>        -0.1384
     28 C21         6.9215   -4.4296    4.3012 C.ar      1 <0>         0.1051
     29 N5          7.7249   -3.4004    4.1113 N.ar      1 <0>        -0.4743
     30 C22         7.3808   -2.3744    3.3566 C.ar      1 <0>         0.1017
     31 C23         6.1550   -2.3400    2.7243 C.ar      1 <0>        -0.1410
     32 C24         3.7622   -5.9446    1.7840 C.ar      1 <0>         0.0271
     33 C25         3.0870   -6.9069    2.5362 C.ar      1 <0>        -0.0960
     34 C26         3.5482   -8.2071    2.5661 C.ar      1 <0>        -0.0927
     35 C27         4.6797   -8.5605    1.8523 C.ar      1 <0>        -0.0625
     36 C28         5.3580   -7.6086    1.1014 C.ar      1 <0>         0.1211
     37 C29         4.8991   -6.3030    1.0604 C.ar      1 <0>        -0.1162
     38 O3          6.4693   -7.9605    0.4022 O.3       1 <0>        -0.4854
     39 Cl1         5.2537  -10.1982    1.8957 Cl        1 <0>        -0.0560
     40 H1          1.0116    1.8660   -0.2669 H         1 <0>         0.0782
     41 H2         -0.7493    1.8634   -0.5267 H         1 <0>         0.0899
     42 H3         -0.0937    1.8238    1.1277 H         1 <0>         0.0603
     43 H4         -2.0449    0.0482   -0.2587 H         1 <0>         0.1139
     44 H5         -2.1886   -2.4816    0.2546 H         1 <0>         0.0960
     45 H6         -1.3132   -2.0473   -1.2284 H         1 <0>         0.1046
     46 H7         -0.7914   -4.6264   -0.2718 H         1 <0>         0.1816
     47 H8          1.8165   -0.0705    1.3304 H         1 <0>         0.1398
     48 H9          0.0352   -1.1437    3.1473 H         1 <0>         0.1010
     49 H10         0.0613    0.6280    2.8821 H         1 <0>         0.0898
     50 H11        -2.0510   -1.2937    2.1788 H         1 <0>         0.1565
     51 H12        -3.5538    1.6620   -0.3837 H         1 <0>         0.1417
     52 H13        -5.7937    1.2879   -1.3354 H         1 <0>         0.1363
     53 H14        -7.5531    0.2399    0.0320 H         1 <0>         0.1340
     54 H15        -7.0722   -0.4347    2.3508 H         1 <0>         0.1357
     55 H16        -4.8298   -0.0682    3.2998 H         1 <0>         0.1408
     56 H17         5.0224   -5.3188    3.8716 H         1 <0>         0.1388
     57 H18         7.2438   -5.2486    4.9271 H         1 <0>         0.1620
     58 H19         8.0695   -1.5525    3.2287 H         1 <0>         0.1620
     59 H20         5.8818   -1.4992    2.1039 H         1 <0>         0.1401
     60 H21         2.2040   -6.6340    3.0949 H         1 <0>         0.1319
     61 H22         3.0248   -8.9508    3.1485 H         1 <0>         0.1400
     62 H23         5.4227   -5.5632    0.4731 H         1 <0>         0.1342
     63 H24         6.2887   -8.2569   -0.5003 H         1 <0>         0.3936
@<TRIPOS>BOND
     1    1    2 1
     2    1   40 1
     3    1   41 1
     4    1   42 1
     5    2   14 1
     6    2    3 1
     7    3   16 1
     8    3    4 1
     9    3   43 1
    10    4    5 1
    11    4   44 1
    12    4   45 1
    13    5   13 2
    14    5    6 1
    15    6    7 2
    16    6   46 1
    17    7    8 1
    18    8   12 1
    19    8    9 2
    20    9   10 1
    21    9   32 1
    22   10   11 2
    23   10   26 1
    24   11   12 1
    25   12   13 1
    26   13   14 1
    27   14   15 1
    28   14   47 1
    29   15   16 1
    30   15   48 1
    31   15   49 1
    32   16   17 1
    33   16   50 1
    34   17   18 2
    35   17   19 2
    36   17   20 1
    37   20   25 ar
    38   20   21 ar
    39   21   22 ar
    40   21   51 1
    41   22   23 ar
    42   22   52 1
    43   23   24 ar
    44   23   53 1
    45   24   25 ar
    46   24   54 1
    47   25   55 1
    48   26   31 ar
    49   26   27 ar
    50   27   28 ar
    51   27   56 1
    52   28   29 ar
    53   28   57 1
    54   29   30 ar
    55   30   31 ar
    56   30   58 1
    57   31   59 1
    58   32   37 ar
    59   32   33 ar
    60   33   34 ar
    61   33   60 1
    62   34   35 ar
    63   34   61 1
    64   35   36 ar
    65   35   39 1
    66   36   37 ar
    67   36   38 1
    68   37   62 1
    69   38   63 1
@<TRIPOS>MOLECULE
CHEMBL403854
   57    61     0     0     0
SMALL
USER_CHARGES

@<TRIPOS>ATOM
      1 C1          0.4274    1.6648    0.6197 C.3       1 <0>         0.0984
      2 N1          0.3071    0.2123    0.4710 N.pl3     1 <0>        -0.6883
      3 C2          0.7777   -0.4075   -0.6737 C.ar      1 <0>         0.5810
      4 N2          1.3390    0.3290   -1.6222 N.ar      1 <0>        -0.5469
      5 C3          1.8026   -0.2246   -2.7327 C.ar      1 <0>         0.2170
      6 C4          1.6977   -1.5921   -2.9020 C.ar      1 <0>        -0.2764
      7 C5          1.1000   -2.3463   -1.8835 C.ar      1 <0>         0.2568
      8 N3          0.6603   -1.7202   -0.7902 N.ar      1 <0>        -0.5397
      9 C6          0.9640   -3.8082   -2.0154 C.2       1 <0>         0.1044
     10 C7          0.8571   -4.7297   -0.9879 C.2       1 <0>         0.1432
     11 N4          0.7525   -5.9468   -1.5502 N.pl3     1 <0>        -0.4699
     12 C8          0.7881   -5.8328   -2.8491 C.cat     1 <0>         0.3762
     13 N5          0.9116   -4.5324   -3.1858 N.pl3     1 <0>        -0.4986
     14 H1          0.9576   -4.1737   -4.0858 H         1 <0>         0.4635
     15 C9          0.6986   -6.9780   -3.8246 C.3       1 <0>        -0.1449
     16 C10         1.4897   -6.8587   -5.1287 C.3       1 <0>        -0.1425
     17 C11        -0.0345   -6.7267   -5.1438 C.3       1 <0>        -0.1435
     18 C12         0.8578   -4.4303    0.4632 C.ar      1 <0>        -0.0399
     19 C13         1.7860   -3.5331    0.9920 C.ar      1 <0>        -0.0604
     20 C14         1.7850   -3.2557    2.3439 C.ar      1 <0>        -0.0942
     21 C15         0.8661   -3.8644    3.1782 C.ar      1 <0>        -0.0852
     22 C16        -0.0620   -4.7597    2.6607 C.ar      1 <0>         0.1573
     23 C17        -0.0723   -5.0397    1.3028 C.ar      1 <0>        -0.1203
     24 N6         -0.9899   -5.3743    3.5091 N.am      1 <0>        -0.6800
     25 C18        -1.4690   -4.7089    4.5787 C.2       1 <0>         0.5164
     26 O1         -1.1707   -3.5463    4.7532 O.2       1 <0>        -0.4991
     27 C19        -2.3754   -5.4094    5.5579 C.3       1 <0>        -0.0993
     28 C20        -2.7673   -4.4516    6.6534 C.ar      1 <0>        -0.0750
     29 C21        -1.9903   -4.3490    7.7922 C.ar      1 <0>        -0.0907
     30 C22        -2.3493   -3.4707    8.7972 C.ar      1 <0>        -0.1077
     31 C23        -3.4865   -2.6942    8.6634 C.ar      1 <0>        -0.0290
     32 C24        -4.2638   -2.7973    7.5235 C.ar      1 <0>        -0.1082
     33 C25        -3.9006   -3.6719    6.5166 C.ar      1 <0>        -0.0909
     34 Cl1        -3.9384   -1.5913    9.9256 Cl        1 <0>        -0.0630
     35 H2          1.4792    1.9482    0.5801 H         1 <0>         0.0668
     36 H3         -0.1126    2.1587   -0.1882 H         1 <0>         0.0658
     37 H4          0.0051    1.9681    1.5776 H         1 <0>         0.0842
     38 H5         -0.1023   -0.3150    1.1747 H         1 <0>         0.4200
     39 H6          2.2575    0.3865   -3.4981 H         1 <0>         0.1820
     40 H7          2.0674   -2.0681   -3.7982 H         1 <0>         0.1448
     41 H8          0.6081   -7.9688   -3.3793 H         1 <0>         0.1645
     42 H9          2.0749   -5.9518   -5.2812 H         1 <0>         0.1088
     43 H10         1.9200   -7.7710   -5.5416 H         1 <0>         0.1326
     44 H11        -0.6070   -7.5523   -5.5666 H         1 <0>         0.1323
     45 H12        -0.4521   -5.7331   -5.3062 H         1 <0>         0.1085
     46 H13         2.5058   -3.0559    0.3434 H         1 <0>         0.1220
     47 H14         2.5047   -2.5611    2.7515 H         1 <0>         0.1381
     48 H15         0.8697   -3.6437    4.2354 H         1 <0>         0.1450
     49 H16        -0.7960   -5.7316    0.8978 H         1 <0>         0.1283
     50 H17        -1.2882   -6.2792    3.3272 H         1 <0>         0.4144
     51 H18        -3.2702   -5.7559    5.0409 H         1 <0>         0.1110
     52 H19        -1.8526   -6.2622    5.9908 H         1 <0>         0.1132
     53 H20        -1.1028   -4.9554    7.8967 H         1 <0>         0.1304
     54 H21        -1.7424   -3.3909    9.6870 H         1 <0>         0.1364
     55 H22        -5.1518   -2.1917    7.4186 H         1 <0>         0.1358
     56 H23        -4.5047   -3.7490    5.6247 H         1 <0>         0.1294
     57 H24         0.6644   -6.7816   -1.0642 H         1 <0>         0.4650
@<TRIPOS>BOND
     1    1    2 1
     2    1   35 1
     3    1   36 1
     4    1   37 1
     5    2    3 1
     6    2   38 1
     7    3    8 ar
     8    3    4 ar
     9    4    5 ar
    10    5    6 ar
    11    5   39 1
    12    6    7 ar
    13    6   40 1
    14    7    8 ar
    15    7    9 1
    16    9   13 1
    17    9   10 2
    18   10   11 1
    19   10   18 1
    20   11   12 2
    21   11   57 1
    22   12   13 1
    23   12   15 1
    24   13   14 1
    25   15   17 1
    26   15   16 1
    27   15   41 1
    28   16   17 1
    29   16   42 1
    30   16   43 1
    31   17   44 1
    32   17   45 1
    33   18   23 ar
    34   18   19 ar
    35   19   20 ar
    36   19   46 1
    37   20   21 ar
    38   20   47 1
    39   21   22 ar
    40   21   48 1
    41   22   23 ar
    42   22   24 1
    43   23   49 1
    44   24   25 am
    45   24   50 1
    46   25   26 2
    47   25   27 1
    48   27   28 1
    49   27   51 1
    50   27   52 1
    51   28   33 ar
    52   28   29 ar
    53   29   30 ar
    54   29   53 1
    55   30   31 ar
    56   30   54 1
    57   31   32 ar
    58   31   34 1
    59   32   33 ar
    60   32   55 1
    61   33   56 1
@<TRIPOS>MOLECULE
CHEMBL403854__1
   56    60     0     0     0
SMALL
USER_CHARGES

@<TRIPOS>ATOM
      1 C1          0.2928    1.6745   -0.6183 C.3       1 <0>         0.1085
      2 N1          0.2597    0.2204   -0.4430 N.pl3     1 <0>        -0.7047
      3 C2         -0.9509   -0.4288   -0.2731 C.ar      1 <0>         0.5653
      4 N2         -2.0703    0.2810   -0.2771 N.ar      1 <0>        -0.5710
      5 C3         -3.2487   -0.3020   -0.1181 C.ar      1 <0>         0.1902
      6 C4         -3.3079   -1.6722    0.0544 C.ar      1 <0>        -0.2602
      7 C5         -2.1104   -2.3964    0.0544 C.ar      1 <0>         0.3025
      8 N3         -0.9612   -1.7428   -0.1162 N.ar      1 <0>        -0.5553
      9 C6         -2.1201   -3.8641    0.2351 C.2       1 <0>         0.0467
     10 C7         -1.1489   -4.7494   -0.1996 C.2       1 <0>         0.0766
     11 N4         -1.5691   -5.9990    0.1841 N.pl3     1 <0>        -0.5532
     12 C8         -2.7550   -5.8475    0.8264 C.2       1 <0>         0.2543
     13 N5         -3.0730   -4.5844    0.8583 N.2       1 <0>        -0.4523
     14 H1         -1.1042   -6.8354    0.0255 H         1 <0>         0.4252
     15 C9         -3.5742   -6.9663    1.4166 C.3       1 <0>        -0.0787
     16 C10        -3.2504   -8.3923    0.9667 C.3       1 <0>        -0.1750
     17 C11        -4.5313   -7.7098    0.4827 C.3       1 <0>        -0.1537
     18 C12         0.0908   -4.4165   -0.9303 C.ar      1 <0>         0.0074
     19 C13         0.0551   -3.5157   -1.9974 C.ar      1 <0>        -0.0718
     20 C14         1.2146   -3.2068   -2.6782 C.ar      1 <0>        -0.0990
     21 C15         2.4143   -3.7863   -2.3084 C.ar      1 <0>        -0.1348
     22 C16         2.4605   -4.6840   -1.2486 C.ar      1 <0>         0.1443
     23 C17         1.3026   -4.9963   -0.5536 C.ar      1 <0>        -0.1051
     24 N6          3.6773   -5.2682   -0.8792 N.am      1 <0>        -0.6743
     25 C18         3.7015   -6.5258   -0.3950 C.2       1 <0>         0.5149
     26 O1          2.6839   -7.1852   -0.3686 O.2       1 <0>        -0.5107
     27 C19         4.9930   -7.1127    0.1135 C.3       1 <0>        -0.1018
     28 C20         4.7500   -8.5197    0.5956 C.ar      1 <0>        -0.0676
     29 C21         4.3911   -8.7471    1.9111 C.ar      1 <0>        -0.0916
     30 C22         4.1680  -10.0372    2.3538 C.ar      1 <0>        -0.1085
     31 C23         4.3040  -11.1013    1.4800 C.ar      1 <0>        -0.0315
     32 C24         4.6632  -10.8732    0.1636 C.ar      1 <0>        -0.1085
     33 C25         4.8805   -9.5821   -0.2794 C.ar      1 <0>        -0.0908
     34 Cl1         4.0246  -12.7221    2.0355 Cl        1 <0>        -0.0683
     35 H2          1.3254    2.0027   -0.7365 H         1 <0>         0.0736
     36 H3         -0.2788    1.9466   -1.5056 H         1 <0>         0.0584
     37 H4         -0.1436    2.1559    0.2568 H         1 <0>         0.0577
     38 H5          1.0861   -0.2875   -0.4461 H         1 <0>         0.4131
     39 H6         -4.1539    0.2870   -0.1228 H         1 <0>         0.1687
     40 H7         -4.2561   -2.1722    0.1865 H         1 <0>         0.1480
     41 H8         -3.8892   -6.8236    2.4503 H         1 <0>         0.1366
     42 H9         -2.4448   -8.5213    0.2438 H         1 <0>         0.0919
     43 H10        -3.3521   -9.1882    1.7045 H         1 <0>         0.1104
     44 H11        -5.4757   -8.0566    0.9021 H         1 <0>         0.1093
     45 H12        -4.5684   -7.3897   -0.5586 H         1 <0>         0.0981
     46 H13        -0.8802   -3.0615   -2.2897 H         1 <0>         0.1168
     47 H14         1.1851   -2.5101   -3.5029 H         1 <0>         0.1284
     48 H15         3.3186   -3.5407   -2.8454 H         1 <0>         0.1269
     49 H16         1.3374   -5.6900    0.2734 H         1 <0>         0.1306
     50 H17         4.5033   -4.7682   -0.9716 H         1 <0>         0.4127
     51 H18         5.7278   -7.1263   -0.6915 H         1 <0>         0.1102
     52 H19         5.3682   -6.5060    0.9377 H         1 <0>         0.1110
     53 H20         4.2854   -7.9164    2.5931 H         1 <0>         0.1300
     54 H21         3.8880  -10.2147    3.3816 H         1 <0>         0.1346
     55 H22         4.7698  -11.7034   -0.5188 H         1 <0>         0.1347
     56 H23         5.1562   -9.4034   -1.3082 H         1 <0>         0.1305
@<TRIPOS>BOND
     1    1    2 1
     2    1   35 1
     3    1   36 1
     4    1   37 1
     5    2    3 1
     6    2   38 1
     7    3    8 ar
     8    3    4 ar
     9    4    5 ar
    10    5    6 ar
    11    5   39 1
    12    6    7 ar
    13    6   40 1
    14    7    8 ar
    15    7    9 1
    16    9   13 1
    17    9   10 2
    18   10   18 1
    19   10   11 1
    20   11   12 1
    21   11   14 1
    22   12   15 1
    23   12   13 2
    24   15   17 1
    25   15   16 1
    26   15   41 1
    27   16   17 1
    28   16   42 1
    29   16   43 1
    30   17   44 1
    31   17   45 1
    32   18   23 ar
    33   18   19 ar
    34   19   20 ar
    35   19   46 1
    36   20   21 ar
    37   20   47 1
    38   21   22 ar
    39   21   48 1
    40   22   23 ar
    41   22   24 1
    42   23   49 1
    43   24   25 am
    44   24   50 1
    45   25   26 2
    46   25   27 1
    47   27   28 1
    48   27   51 1
    49   27   52 1
    50   28   33 ar
    51   28   29 ar
    52   29   30 ar
    53   29   53 1
    54   30   31 ar
    55   30   54 1
    56   31   32 ar
    57   31   34 1
    58   32   33 ar
    59   32   55 1
    60   33   56 1
@<TRIPOS>MOLECULE
CHEMBL403854__2
   56    60     0     0     0
SMALL
USER_CHARGES

@<TRIPOS>ATOM
      1 C1          0.2143    1.6514   -0.5791 C.3       1 <0>         0.1062
      2 N1          0.2074    0.1962   -0.4101 N.pl3     1 <0>        -0.6995
      3 C2         -0.9898   -0.4734   -0.2255 C.ar      1 <0>         0.5716
      4 N2         -2.1205    0.2183   -0.2099 N.ar      1 <0>        -0.5697
      5 C3         -3.2875   -0.3838   -0.0365 C.ar      1 <0>         0.2021
      6 C4         -3.3234   -1.7551    0.1306 C.ar      1 <0>        -0.2914
      7 C5         -2.1133   -2.4613    0.1099 C.ar      1 <0>         0.2975
      8 N3         -0.9762   -1.7878   -0.0746 N.ar      1 <0>        -0.5455
      9 C6         -2.0972   -3.9251    0.2836 C.2       1 <0>         0.0022
     10 C7         -1.1266   -4.8052   -0.1632 C.2       1 <0>         0.1170
     11 N4         -1.5046   -6.0411    0.2081 N.2       1 <0>        -0.4636
     12 C8         -2.6382   -5.9772    0.8502 C.2       1 <0>         0.2720
     13 N5         -3.0420   -4.6925    0.9282 N.pl3     1 <0>        -0.5480
     14 H1         -3.8497   -4.3691    1.3570 H         1 <0>         0.4220
     15 C9         -3.3802   -7.1574    1.4227 C.3       1 <0>        -0.0813
     16 C10        -4.4717   -6.8719    2.4562 C.3       1 <0>        -0.1748
     17 C11        -3.1445   -7.4926    2.8968 C.3       1 <0>        -0.1529
     18 C12         0.1018   -4.4508   -0.9119 C.ar      1 <0>         0.0141
     19 C13         0.0832   -3.4003   -1.8298 C.ar      1 <0>        -0.0746
     20 C14         1.2285   -3.0718   -2.5262 C.ar      1 <0>        -0.1087
     21 C15         2.3967   -3.7809   -2.3178 C.ar      1 <0>        -0.1373
     22 C16         2.4248   -4.8290   -1.4061 C.ar      1 <0>         0.1365
     23 C17         1.2805   -5.1620   -0.6974 C.ar      1 <0>        -0.0851
     24 N6          3.6094   -5.5447   -1.1989 N.am      1 <0>        -0.6758
     25 C18         3.5600   -6.8595   -0.9068 C.2       1 <0>         0.5087
     26 O1          2.4971   -7.4436   -0.9174 O.2       1 <0>        -0.4978
     27 C19         4.8255   -7.6040   -0.5671 C.3       1 <0>        -0.1010
     28 C20         4.4984   -9.0474   -0.2832 C.ar      1 <0>        -0.0661
     29 C21         4.1868   -9.4451    1.0036 C.ar      1 <0>        -0.0904
     30 C22         3.8867  -10.7687    1.2646 C.ar      1 <0>        -0.1082
     31 C23         3.8982  -11.6958    0.2377 C.ar      1 <0>        -0.0316
     32 C24         4.2101  -11.2972   -1.0499 C.ar      1 <0>        -0.1087
     33 C25         4.5045   -9.9722   -1.3107 C.ar      1 <0>        -0.0906
     34 Cl1         3.5219  -13.3587    0.5648 Cl        1 <0>        -0.0707
     35 H2          1.2396    1.9971   -0.7108 H         1 <0>         0.0765
     36 H3         -0.3746    1.9181   -1.4567 H         1 <0>         0.0602
     37 H4         -0.2170    2.1219    0.3045 H         1 <0>         0.0591
     38 H5          1.0419   -0.2980   -0.4276 H         1 <0>         0.4163
     39 H6         -4.2016    0.1912   -0.0254 H         1 <0>         0.1703
     40 H7         -4.2617   -2.2701    0.2741 H         1 <0>         0.1377
     41 H8         -3.5412   -7.9892    0.7369 H         1 <0>         0.1386
     42 H9         -4.6531   -5.8305    2.7220 H         1 <0>         0.0914
     43 H10        -5.3511   -7.5159    2.4503 H         1 <0>         0.1113
     44 H11        -3.1508   -8.5449    3.1809 H         1 <0>         0.1101
     45 H12        -2.4528   -6.8596    3.4525 H         1 <0>         0.0980
     46 H13        -0.8277   -2.8442   -1.9955 H         1 <0>         0.1132
     47 H14         1.2119   -2.2584   -3.2366 H         1 <0>         0.1235
     48 H15         3.2901   -3.5196   -2.8656 H         1 <0>         0.1236
     49 H16         1.3016   -5.9733    0.0152 H         1 <0>         0.1377
     50 H17         4.4660   -5.0945   -1.2656 H         1 <0>         0.4102
     51 H18         5.5175   -7.5467   -1.4073 H         1 <0>         0.1084
     52 H19         5.2854   -7.1557    0.3136 H         1 <0>         0.1092
     53 H20         4.1782   -8.7213    1.8052 H         1 <0>         0.1299
     54 H21         3.6436  -11.0794    2.2700 H         1 <0>         0.1339
     55 H22         4.2195  -12.0205   -1.8519 H         1 <0>         0.1340
     56 H23         4.7434   -9.6600   -2.3166 H         1 <0>         0.1302
@<TRIPOS>BOND
     1    1    2 1
     2    1   35 1
     3    1   36 1
     4    1   37 1
     5    2    3 1
     6    2   38 1
     7    3    8 ar
     8    3    4 ar
     9    4    5 ar
    10    5    6 ar
    11    5   39 1
    12    6    7 ar
    13    6   40 1
    14    7    8 ar
    15    7    9 1
    16    9   13 1
    17    9   10 2
    18   10   11 1
    19   10   18 1
    20   11   12 2
    21   12   13 1
    22   12   15 1
    23   13   14 1
    24   15   17 1
    25   15   16 1
    26   15   41 1
    27   16   17 1
    28   16   42 1
    29   16   43 1
    30   17   44 1
    31   17   45 1
    32   18   23 ar
    33   18   19 ar
    34   19   20 ar
    35   19   46 1
    36   20   21 ar
    37   20   47 1
    38   21   22 ar
    39   21   48 1
    40   22   23 ar
    41   22   24 1
    42   23   49 1
    43   24   25 am
    44   24   50 1
    45   25   26 2
    46   25   27 1
    47   27   28 1
    48   27   51 1
    49   27   52 1
    50   28   33 ar
    51   28   29 ar
    52   29   30 ar
    53   29   53 1
    54   30   31 ar
    55   30   54 1
    56   31   32 ar
    57   31   34 1
    58   32   33 ar
    59   32   55 1
    60   33   56 1
@<TRIPOS>MOLECULE
CHEMBL254965
   65    69     0     0     0
SMALL
USER_CHARGES

@<TRIPOS>ATOM
      1 C1          0.0041    1.3797    0.1747 C.ar      1 <0>        -0.1073
      2 C2          1.1741    2.0887   -0.0111 C.ar      1 <0>        -0.0732
      3 C3          2.3776    1.4104   -0.2031 C.ar      1 <0>         0.0087
      4 C4          2.3945    0.0169   -0.2062 C.ar      1 <0>        -0.0829
      5 C5          1.2151   -0.6867   -0.0184 C.ar      1 <0>         0.1392
      6 C6          0.0205   -0.0021    0.1717 C.ar      1 <0>        -0.1326
      7 N1          1.2269   -2.0861   -0.0212 N.am      1 <0>        -0.6762
      8 C7          2.2965   -2.7518    0.4576 C.2       1 <0>         0.5092
      9 O1          3.2071   -2.1425    0.9779 O.2       1 <0>        -0.4974
     10 C8          2.3611   -4.2533    0.3464 C.3       1 <0>        -0.1006
     11 C9          3.6495   -4.7470    0.9526 C.ar      1 <0>        -0.0674
     12 C10         4.7814   -4.8659    0.1678 C.ar      1 <0>        -0.0903
     13 C11         5.9633   -5.3186    0.7233 C.ar      1 <0>        -0.1080
     14 C12         6.0134   -5.6527    2.0649 C.ar      1 <0>        -0.0311
     15 C13         4.8804   -5.5335    2.8497 C.ar      1 <0>        -0.1088
     16 C14         3.7005   -5.0753    2.2945 C.ar      1 <0>        -0.0907
     17 Cl1         7.4974   -6.2219    2.7631 Cl        1 <0>        -0.0701
     18 C15         3.6342    2.1693   -0.4037 C.2       1 <0>         0.1178
     19 C16         3.7661    3.3766   -1.0680 C.2       1 <0>         0.0510
     20 N2          5.1028    3.7029   -1.0071 N.pl3     1 <0>        -0.5206
     21 H1          5.5184    4.4951   -1.3818 H         1 <0>         0.4333
     22 C17         5.7270    2.7175   -0.3297 C.2       1 <0>         0.1367
     23 N3          4.8566    1.8153    0.0309 N.2       1 <0>        -0.4112
     24 C18         7.2031    2.6695   -0.0296 C.3       1 <0>         0.5641
     25 F1          7.5551    1.3772    0.3744 F         1 <0>        -0.1426
     26 F2          7.9239    3.0114   -1.1789 F         1 <0>        -0.1668
     27 F3          7.5005    3.5755    0.9941 F         1 <0>        -0.1620
     28 C19         2.6925    4.1556   -1.7111 C.ar      1 <0>         0.2871
     29 C20         2.8245    5.5398   -1.8876 C.ar      1 <0>        -0.2829
     30 C21         1.7918    6.2265   -2.4960 C.ar      1 <0>         0.2058
     31 N4          0.7156    5.5629   -2.8918 N.ar      1 <0>        -0.5624
     32 C22         0.6157    4.2535   -2.7130 C.ar      1 <0>         0.5783
     33 N5          1.5816    3.5537   -2.1398 N.ar      1 <0>        -0.5386
     34 N6         -0.5266    3.6000   -3.1419 N.pl3     1 <0>        -0.6911
     35 C23        -1.6053    4.3553   -3.7840 C.3       1 <0>         0.1204
     36 C24        -2.7422    3.4024   -4.1586 C.3       1 <0>         0.1414
     37 N7         -3.8208    4.1577   -4.8007 N.am      1 <0>        -0.6304
     38 C25        -4.9525    4.7868   -4.1036 C.3       1 <0>         0.0909
     39 C26        -5.7697    5.4362   -5.2373 C.3       1 <0>         0.0912
     40 N8         -5.0116    5.1040   -6.4528 N.am      1 <0>        -0.7411
     41 C27        -3.9298    4.3899   -6.1154 C.2       1 <0>         0.6993
     42 O2         -3.1219    3.9857   -6.9292 O.2       1 <0>        -0.5811
     43 H2         -0.9261    1.9067    0.3274 H         1 <0>         0.1255
     44 H3          1.1573    3.1685   -0.0081 H         1 <0>         0.1146
     45 H4          3.3237   -0.5132   -0.3548 H         1 <0>         0.1395
     46 H5         -0.8977   -0.5517    0.3175 H         1 <0>         0.1255
     47 H6          0.4654   -2.5768   -0.3676 H         1 <0>         0.4112
     48 H7          1.5174   -4.6937    0.8777 H         1 <0>         0.1087
     49 H8          2.3197   -4.5420   -0.7039 H         1 <0>         0.1097
     50 H9          4.7420   -4.6054   -0.8795 H         1 <0>         0.1301
     51 H10         6.8474   -5.4118    0.1100 H         1 <0>         0.1342
     52 H11         4.9188   -5.7944    3.8970 H         1 <0>         0.1341
     53 H12         2.8171   -4.9777    2.9081 H         1 <0>         0.1301
     54 H13         3.7124    6.0572   -1.5554 H         1 <0>         0.1414
     55 H14         1.8608    7.2937   -2.6472 H         1 <0>         0.1735
     56 H15        -0.6129    2.6419   -3.0174 H         1 <0>         0.4166
     57 H16        -1.9784    5.1129   -3.0949 H         1 <0>         0.0713
     58 H17        -1.2247    4.8385   -4.6839 H         1 <0>         0.0741
     59 H18        -2.3690    2.6448   -4.8477 H         1 <0>         0.0926
     60 H19        -3.1227    2.9192   -3.2587 H         1 <0>         0.0893
     61 H20        -5.5478    4.0353   -3.5849 H         1 <0>         0.0853
     62 H21        -4.5981    5.5446   -3.4049 H         1 <0>         0.0843
     63 H22        -6.7708    5.0072   -5.2815 H         1 <0>         0.0850
     64 H23        -5.8210    6.5165   -5.1016 H         1 <0>         0.0847
     65 H24        -5.2543    5.3643   -7.3552 H         1 <0>         0.4316
@<TRIPOS>BOND
     1    1    6 ar
     2    1    2 ar
     3    1   43 1
     4    2    3 ar
     5    2   44 1
     6    3    4 ar
     7    3   18 1
     8    4    5 ar
     9    4   45 1
    10    5    6 ar
    11    5    7 1
    12    6   46 1
    13    7    8 am
    14    7   47 1
    15    8    9 2
    16    8   10 1
    17   10   11 1
    18   10   48 1
    19   10   49 1
    20   11   16 ar
    21   11   12 ar
    22   12   13 ar
    23   12   50 1
    24   13   14 ar
    25   13   51 1
    26   14   15 ar
    27   14   17 1
    28   15   16 ar
    29   15   52 1
    30   16   53 1
    31   18   23 1
    32   18   19 2
    33   19   20 1
    34   19   28 1
    35   20   21 1
    36   20   22 1
    37   22   23 2
    38   22   24 1
    39   24   25 1
    40   24   26 1
    41   24   27 1
    42   28   33 ar
    43   28   29 ar
    44   29   30 ar
    45   29   54 1
    46   30   31 ar
    47   30   55 1
    48   31   32 ar
    49   32   33 ar
    50   32   34 1
    51   34   35 1
    52   34   56 1
    53   35   36 1
    54   35   57 1
    55   35   58 1
    56   36   37 1
    57   36   59 1
    58   36   60 1
    59   37   41 am
    60   37   38 1
    61   38   39 1
    62   38   61 1
    63   38   62 1
    64   39   40 1
    65   39   63 1
    66   39   64 1
    67   40   41 am
    68   40   65 1
    69   41   42 2
@<TRIPOS>MOLECULE
CHEMBL254965__1
   65    69     0     0     0
SMALL
USER_CHARGES

@<TRIPOS>ATOM
      1 C1          0.0042    1.3800    0.1751 C.ar      1 <0>        -0.1142
      2 C2          1.1735    2.0891   -0.0107 C.ar      1 <0>        -0.0558
      3 C3          2.3786    1.4100   -0.2029 C.ar      1 <0>        -0.0338
      4 C4          2.3946    0.0146   -0.2061 C.ar      1 <0>        -0.0978
      5 C5          1.2148   -0.6876   -0.0186 C.ar      1 <0>         0.1342
      6 C6          0.0205   -0.0021    0.1719 C.ar      1 <0>        -0.1212
      7 N1          1.2255   -2.0870   -0.0214 N.am      1 <0>        -0.6754
      8 C7          2.2944   -2.7537    0.4577 C.2       1 <0>         0.5119
      9 O1          3.2052   -2.1452    0.9784 O.2       1 <0>        -0.5057
     10 C8          2.3578   -4.2553    0.3464 C.3       1 <0>        -0.1007
     11 C9          3.6455   -4.7500    0.9531 C.ar      1 <0>        -0.0690
     12 C10         4.7776   -4.8698    0.1687 C.ar      1 <0>        -0.0918
     13 C11         5.9589   -5.3235    0.7245 C.ar      1 <0>        -0.1084
     14 C12         6.0083   -5.6577    2.0662 C.ar      1 <0>        -0.0310
     15 C13         4.8751   -5.5376    2.8507 C.ar      1 <0>        -0.1082
     16 C14         3.6958   -5.0784    2.2950 C.ar      1 <0>        -0.0906
     17 Cl1         7.4916   -6.2282    2.7649 Cl        1 <0>        -0.0677
     18 C15         3.6316    2.1661   -0.4025 C.2       1 <0>         0.1287
     19 C16         4.0639    3.2637    0.3215 C.2       1 <0>         0.0494
     20 N2          5.2521    3.6417   -0.1890 N.2       1 <0>        -0.3963
     21 H1          4.5971    1.2067   -1.9999 H         1 <0>         0.4332
     22 C17         5.5744    2.8513   -1.1734 C.2       1 <0>         0.1189
     23 N3          4.6039    1.9172   -1.3396 N.pl3     1 <0>        -0.5309
     24 C18         6.8328    2.9546   -1.9961 C.3       1 <0>         0.5664
     25 F1          7.7490    3.7872   -1.3444 F         1 <0>        -0.1454
     26 F2          7.3911    1.6819   -2.1562 F         1 <0>        -0.1671
     27 F3          6.5265    3.4907   -3.2515 F         1 <0>        -0.1628
     28 C19         3.3519    3.9045    1.4483 C.ar      1 <0>         0.3025
     29 C20         4.0573    4.6353    2.4116 C.ar      1 <0>        -0.2548
     30 C21         3.3487    5.2164    3.4459 C.ar      1 <0>         0.1972
     31 N4          2.0335    5.0663    3.4956 N.ar      1 <0>        -0.5661
     32 C22         1.3903    4.3690    2.5703 C.ar      1 <0>         0.5735
     33 N5          2.0280    3.7999    1.5597 N.ar      1 <0>        -0.5591
     34 N6          0.0155    4.2366    2.6603 N.pl3     1 <0>        -0.6971
     35 C23        -0.7098    4.8631    3.7683 C.3       1 <0>         0.1214
     36 C24        -2.2044    4.5656    3.6325 C.3       1 <0>         0.1414
     37 N7         -2.9297    5.1922    4.7405 N.am      1 <0>        -0.6302
     38 C25        -3.2078    4.5636    6.0405 C.3       1 <0>         0.0908
     39 C26        -3.9853    5.6455    6.8150 C.3       1 <0>         0.0915
     40 N8         -4.0627    6.7688    5.8691 N.am      1 <0>        -0.7413
     41 C27        -3.4398    6.4307    4.7324 C.2       1 <0>         0.6994
     42 O2         -3.3492    7.1788    3.7783 O.2       1 <0>        -0.5808
     43 H2         -0.9261    1.9068    0.3280 H         1 <0>         0.1307
     44 H3          1.1565    3.1689   -0.0079 H         1 <0>         0.1613
     45 H4          3.3234   -0.5162   -0.3545 H         1 <0>         0.1316
     46 H5         -0.8977   -0.5515    0.3182 H         1 <0>         0.1279
     47 H6          0.4637   -2.5772   -0.3681 H         1 <0>         0.4129
     48 H7          1.5135   -4.6949    0.8775 H         1 <0>         0.1101
     49 H8          2.3165   -4.5438   -0.7038 H         1 <0>         0.1108
     50 H9          4.7388   -4.6092   -0.8786 H         1 <0>         0.1298
     51 H10         6.8431   -5.4174    0.1116 H         1 <0>         0.1348
     52 H11         4.9130   -5.7986    3.8979 H         1 <0>         0.1349
     53 H12         2.8123   -4.9801    2.9083 H         1 <0>         0.1303
     54 H13         5.1301    4.7423    2.3481 H         1 <0>         0.1508
     55 H14         3.8619    5.7867    4.2060 H         1 <0>         0.1717
     56 H15        -0.4678    3.7289    1.9898 H         1 <0>         0.4115
     57 H16        -0.3442    4.4632    4.7141 H         1 <0>         0.0697
     58 H17        -0.5502    5.9411    3.7436 H         1 <0>         0.0742
     59 H18        -2.5700    4.9655    2.6867 H         1 <0>         0.0925
     60 H19        -2.3641    3.4877    3.6572 H         1 <0>         0.0877
     61 H20        -3.8203    3.6713    5.9108 H         1 <0>         0.0847
     62 H21        -2.2780    4.3192    6.5541 H         1 <0>         0.0843
     63 H22        -4.9838    5.2905    7.0698 H         1 <0>         0.0846
     64 H23        -3.4415    5.9384    7.7131 H         1 <0>         0.0847
     65 H24        -4.4928    7.6208    6.0423 H         1 <0>         0.4314
@<TRIPOS>BOND
     1    1    6 ar
     2    1    2 ar
     3    1   43 1
     4    2    3 ar
     5    2   44 1
     6    3    4 ar
     7    3   18 1
     8    4    5 ar
     9    4   45 1
    10    5    6 ar
    11    5    7 1
    12    6   46 1
    13    7    8 am
    14    7   47 1
    15    8    9 2
    16    8   10 1
    17   10   11 1
    18   10   48 1
    19   10   49 1
    20   11   16 ar
    21   11   12 ar
    22   12   13 ar
    23   12   50 1
    24   13   14 ar
    25   13   51 1
    26   14   15 ar
    27   14   17 1
    28   15   16 ar
    29   15   52 1
    30   16   53 1
    31   18   19 2
    32   18   23 1
    33   19   20 1
    34   19   28 1
    35   20   22 2
    36   21   23 1
    37   22   24 1
    38   22   23 1
    39   24   25 1
    40   24   26 1
    41   24   27 1
    42   28   33 ar
    43   28   29 ar
    44   29   30 ar
    45   29   54 1
    46   30   31 ar
    47   30   55 1
    48   31   32 ar
    49   32   33 ar
    50   32   34 1
    51   34   35 1
    52   34   56 1
    53   35   36 1
    54   35   57 1
    55   35   58 1
    56   36   37 1
    57   36   59 1
    58   36   60 1
    59   37   41 am
    60   37   38 1
    61   38   39 1
    62   38   61 1
    63   38   62 1
    64   39   40 1
    65   39   63 1
    66   39   64 1
    67   40   41 am
    68   40   65 1
    69   41   42 2
@<TRIPOS>MOLECULE
CHEMBL1091687
   75    80     0     0     0
SMALL
USER_CHARGES

@<TRIPOS>ATOM
      1 C1         -0.0053    1.3819    0.0194 C.ar      1 <0>        -0.0997
      2 C2          1.1799    2.0889    0.0213 C.ar      1 <0>        -0.0882
      3 C3          2.3990    1.4080    0.0091 C.ar      1 <0>        -0.0602
      4 C4          2.4131    0.0127   -0.0050 C.ar      1 <0>        -0.0812
      5 C5          1.2172   -0.6877   -0.0068 C.ar      1 <0>         0.1498
      6 C6          0.0089   -0.0001    0.0054 C.ar      1 <0>        -0.1188
      7 N1          1.2259   -2.0863   -0.0214 N.am      1 <0>        -0.6702
      8 C7          2.1817   -2.7472   -0.7040 C.2       1 <0>         0.5684
      9 O1          3.0841   -2.1311   -1.2368 O.2       1 <0>        -0.5122
     10 C8          2.1328   -4.2211   -0.8047 C.ar      1 <0>        -0.1469
     11 C9          1.0947   -4.9311   -0.1989 C.ar      1 <0>        -0.0541
     12 C10         1.0547   -6.3064   -0.2971 C.ar      1 <0>        -0.1205
     13 C11         2.0406   -6.9823   -0.9943 C.ar      1 <0>        -0.0364
     14 C12         3.0724   -6.2848   -1.5966 C.ar      1 <0>        -0.1862
     15 C13         3.1211   -4.9085   -1.5109 C.ar      1 <0>        -0.0062
     16 C14         4.1420   -7.0293   -2.3534 C.3       1 <0>         0.5093
     17 F1          3.8768   -8.4021   -2.3062 F         1 <0>        -0.1709
     18 F2          4.1538   -6.6021   -3.6855 F         1 <0>        -0.1745
     19 F3          5.3883   -6.7747   -1.7710 F         1 <0>        -0.1708
     20 C15         3.6694    2.1622    0.0106 C.2       1 <0>         0.2313
     21 C16         4.5370    2.0746    1.0792 C.2       1 <0>        -0.1834
     22 C17         5.7310    2.8012    1.0492 C.2       1 <0>         0.2011
     23 N2          6.0230    3.5582    0.0170 N.2       1 <0>        -0.4574
     24 C18         5.1930    3.6564   -1.0306 C.2       1 <0>         0.2759
     25 N3          4.0111    2.9596   -1.0550 N.pl3     1 <0>        -0.2837
     26 N4          3.3654    3.2494   -2.2620 N.2       1 <0>        -0.2785
     27 C19         4.1182    4.0846   -2.9567 C.2       1 <0>         0.0916
     28 C20         5.2680    4.3718   -2.2167 C.2       1 <0>        -0.2260
     29 C21         3.7905    4.6360   -4.2952 C.ar      1 <0>         0.1667
     30 C22         4.6675    5.5119   -4.9451 C.ar      1 <0>        -0.1476
     31 C23         4.3288    6.0033   -6.1872 C.ar      1 <0>         0.1619
     32 N5          3.1939    5.6596   -6.7676 N.ar      1 <0>        -0.5007
     33 C24         2.3344    4.8340   -6.1899 C.ar      1 <0>         0.4452
     34 C25         2.6039    4.2902   -4.9401 C.ar      1 <0>        -0.1833
     35 N6          1.1524    4.5039   -6.8433 N.pl3     1 <0>        -0.7130
     36 C26         0.1963    3.5914   -6.2113 C.3       1 <0>         0.1175
     37 C27        -1.0091    3.3969   -7.1334 C.3       1 <0>        -0.1651
     38 C28        -2.0076    2.4440   -6.4734 C.3       1 <0>        -0.0015
     39 N7         -3.1649    2.2573   -7.3587 N.4       1 <0>        -0.3949
     40 C29        -2.7657    1.4955   -8.5697 C.3       1 <0>        -0.0094
     41 C30        -4.1069    0.9097   -9.0782 C.3       1 <0>        -0.1464
     42 C31        -4.8485    0.5565   -7.7685 C.3       1 <0>        -0.1467
     43 C32        -4.1941    1.4351   -6.6863 C.3       1 <0>        -0.0082
     44 H1         -0.9471    1.9103    0.0333 H         1 <0>         0.1364
     45 H2          1.1646    3.1688    0.0319 H         1 <0>         0.1251
     46 H3          3.3528   -0.5196   -0.0148 H         1 <0>         0.1489
     47 H4         -0.9219   -0.5478    0.0044 H         1 <0>         0.1351
     48 H5          0.5439   -2.5805    0.4598 H         1 <0>         0.4165
     49 H6          0.3248   -4.4049    0.3458 H         1 <0>         0.1368
     50 H7          0.2524   -6.8569    0.1714 H         1 <0>         0.1495
     51 H8          2.0047   -8.0591   -1.0682 H         1 <0>         0.1511
     52 H9          3.9245   -4.3648   -1.9856 H         1 <0>         0.1484
     53 H10         4.2968    1.4525    1.9288 H         1 <0>         0.1797
     54 H11         6.4174    2.7397    1.8807 H         1 <0>         0.1965
     55 H12         6.0748    5.0232   -2.5188 H         1 <0>         0.1755
     56 H13         5.5982    5.7996   -4.4788 H         1 <0>         0.1912
     57 H14         5.0015    6.6798   -6.6933 H         1 <0>         0.2182
     58 H15         1.9032    3.6134   -4.4738 H         1 <0>         0.1809
     59 H16         0.9609    4.8777   -7.7177 H         1 <0>         0.4207
     60 H17         0.6760    2.6291   -6.0326 H         1 <0>         0.0965
     61 H18        -0.1362    4.0133   -5.2629 H         1 <0>         0.0970
     62 H19        -1.4888    4.3592   -7.3121 H         1 <0>         0.1017
     63 H20        -0.6766    2.9750   -8.0819 H         1 <0>         0.1009
     64 H21        -1.5279    1.4817   -6.2947 H         1 <0>         0.1364
     65 H22        -2.3401    2.8660   -5.5249 H         1 <0>         0.1373
     66 H23        -2.3288    2.1598   -9.3154 H         1 <0>         0.1341
     67 H24        -2.0708    0.6969   -8.3101 H         1 <0>         0.1349
     68 H25        -4.6625    1.6553   -9.6470 H         1 <0>         0.1002
     69 H26        -3.9348    0.0155   -9.6772 H         1 <0>         0.1195
     70 H27        -5.9086    0.7935   -7.8582 H         1 <0>         0.1087
     71 H28        -4.7148   -0.4989   -7.5309 H         1 <0>         0.1062
     72 H29        -3.7290    0.8053   -5.9278 H         1 <0>         0.1322
     73 H30        -4.9439    2.0802   -6.2283 H         1 <0>         0.1354
     74 H31        -3.5509    3.1520   -7.6208 H         1 <0>         0.4284
     75 H32         2.9833    6.0224   -7.6422 H         1 <0>         0.4443
@<TRIPOS>BOND
     1    1    6 ar
     2    1    2 ar
     3    1   44 1
     4    2    3 ar
     5    2   45 1
     6    3    4 ar
     7    3   20 1
     8    4    5 ar
     9    4   46 1
    10    5    6 ar
    11    5    7 1
    12    6   47 1
    13    7    8 am
    14    7   48 1
    15    8    9 2
    16    8   10 1
    17   10   15 ar
    18   10   11 ar
    19   11   12 ar
    20   11   49 1
    21   12   13 ar
    22   12   50 1
    23   13   14 ar
    24   13   51 1
    25   14   15 ar
    26   14   16 1
    27   15   52 1
    28   16   17 1
    29   16   18 1
    30   16   19 1
    31   20   25 1
    32   20   21 2
    33   21   22 1
    34   21   53 1
    35   22   23 2
    36   22   54 1
    37   23   24 1
    38   24   28 2
    39   24   25 1
    40   25   26 1
    41   26   27 2
    42   27   28 1
    43   27   29 1
    44   28   55 1
    45   29   34 ar
    46   29   30 ar
    47   30   31 ar
    48   30   56 1
    49   31   32 ar
    50   31   57 1
    51   32   33 ar
    52   32   75 1
    53   33   34 ar
    54   33   35 1
    55   34   58 1
    56   35   36 1
    57   35   59 1
    58   36   37 1
    59   36   60 1
    60   36   61 1
    61   37   38 1
    62   37   62 1
    63   37   63 1
    64   38   39 1
    65   38   64 1
    66   38   65 1
    67   39   43 1
    68   39   40 1
    69   39   74 1
    70   40   41 1
    71   40   66 1
    72   40   67 1
    73   41   42 1
    74   41   68 1
    75   41   69 1
    76   42   43 1
    77   42   70 1
    78   42   71 1
    79   43   72 1
    80   43   73 1
@<TRIPOS>MOLECULE
CHEMBL1091687__1
   74    79     0     0     0
SMALL
USER_CHARGES

@<TRIPOS>ATOM
      1 C1         -0.0053    1.3819    0.0194 C.ar      1 <0>        -0.1003
      2 C2          1.1799    2.0889    0.0213 C.ar      1 <0>        -0.0854
      3 C3          2.3990    1.4080    0.0091 C.ar      1 <0>        -0.0516
      4 C4          2.4131    0.0127   -0.0050 C.ar      1 <0>        -0.0821
      5 C5          1.2172   -0.6877   -0.0068 C.ar      1 <0>         0.1447
      6 C6          0.0089   -0.0001    0.0054 C.ar      1 <0>        -0.1223
      7 N1          1.2259   -2.0863   -0.0214 N.am      1 <0>        -0.6689
      8 C7          2.1817   -2.7472   -0.7040 C.2       1 <0>         0.5638
      9 O1          3.0841   -2.1311   -1.2368 O.2       1 <0>        -0.5073
     10 C8          2.1328   -4.2211   -0.8047 C.ar      1 <0>        -0.1419
     11 C9          1.0947   -4.9311   -0.1989 C.ar      1 <0>        -0.0546
     12 C10         1.0547   -6.3064   -0.2971 C.ar      1 <0>        -0.1220
     13 C11         2.0406   -6.9823   -0.9943 C.ar      1 <0>        -0.0396
     14 C12         3.0724   -6.2848   -1.5966 C.ar      1 <0>        -0.1868
     15 C13         3.1211   -4.9085   -1.5109 C.ar      1 <0>        -0.0066
     16 C14         4.1420   -7.0293   -2.3534 C.3       1 <0>         0.5095
     17 F1          3.8768   -8.4021   -2.3062 F         1 <0>        -0.1726
     18 F2          4.1538   -6.6021   -3.6855 F         1 <0>        -0.1736
     19 F3          5.3883   -6.7747   -1.7710 F         1 <0>        -0.1711
     20 C15         3.6694    2.1622    0.0106 C.2       1 <0>         0.2345
     21 C16         4.5370    2.0746    1.0792 C.2       1 <0>        -0.2037
     22 C17         5.7310    2.8012    1.0492 C.2       1 <0>         0.1876
     23 N2          6.0230    3.5582    0.0170 N.2       1 <0>        -0.4596
     24 C18         5.1930    3.6564   -1.0306 C.2       1 <0>         0.2646
     25 N3          4.0111    2.9596   -1.0550 N.pl3     1 <0>        -0.2975
     26 N4          3.3654    3.2494   -2.2620 N.2       1 <0>        -0.2918
     27 C19         4.1182    4.0846   -2.9567 C.2       1 <0>         0.1421
     28 C20         5.2680    4.3718   -2.2167 C.2       1 <0>        -0.2395
     29 C21         3.7905    4.6360   -4.2952 C.ar      1 <0>         0.0702
     30 C22         4.6675    5.5119   -4.9451 C.ar      1 <0>        -0.1947
     31 C23         4.3288    6.0033   -6.1872 C.ar      1 <0>         0.1545
     32 N5          3.1939    5.6596   -6.7676 N.ar      1 <0>        -0.5336
     33 C24         2.3344    4.8340   -6.1899 C.ar      1 <0>         0.3962
     34 C25         2.6039    4.2902   -4.9401 C.ar      1 <0>        -0.2068
     35 N6          1.1524    4.5039   -6.8433 N.pl3     1 <0>        -0.7320
     36 C26         0.1963    3.5914   -6.2113 C.3       1 <0>         0.1349
     37 C27        -1.0091    3.3969   -7.1334 C.3       1 <0>        -0.1606
     38 C28        -2.0076    2.4440   -6.4734 C.3       1 <0>        -0.0013
     39 N7         -3.1649    2.2573   -7.3587 N.4       1 <0>        -0.3941
     40 C29        -2.7657    1.4955   -8.5697 C.3       1 <0>        -0.0088
     41 C30        -4.1069    0.9097   -9.0782 C.3       1 <0>        -0.1458
     42 C31        -4.8485    0.5565   -7.7685 C.3       1 <0>        -0.1455
     43 C32        -4.1941    1.4351   -6.6863 C.3       1 <0>        -0.0084
     44 H1         -0.9471    1.9103    0.0333 H         1 <0>         0.1350
     45 H2          1.1646    3.1688    0.0319 H         1 <0>         0.1259
     46 H3          3.3528   -0.5196   -0.0148 H         1 <0>         0.1473
     47 H4         -0.9219   -0.5478    0.0044 H         1 <0>         0.1324
     48 H5          0.5439   -2.5805    0.4598 H         1 <0>         0.4141
     49 H6          0.3248   -4.4049    0.3458 H         1 <0>         0.1368
     50 H7          0.2524   -6.8569    0.1714 H         1 <0>         0.1479
     51 H8          2.0047   -8.0591   -1.0682 H         1 <0>         0.1494
     52 H9          3.9245   -4.3648   -1.9856 H         1 <0>         0.1493
     53 H10         4.2968    1.4525    1.9288 H         1 <0>         0.1712
     54 H11         6.4174    2.7397    1.8807 H         1 <0>         0.1880
     55 H12         6.0748    5.0232   -2.5188 H         1 <0>         0.1688
     56 H13         5.5982    5.7996   -4.4788 H         1 <0>         0.1443
     57 H14         5.0015    6.6798   -6.6933 H         1 <0>         0.1671
     58 H15         1.9032    3.6134   -4.4738 H         1 <0>         0.1353
     59 H16         0.9609    4.8777   -7.7177 H         1 <0>         0.4071
     60 H17         0.6760    2.6291   -6.0326 H         1 <0>         0.0720
     61 H18        -0.1362    4.0133   -5.2629 H         1 <0>         0.0724
     62 H19        -1.4888    4.3592   -7.3121 H         1 <0>         0.0957
     63 H20        -0.6766    2.9750   -8.0819 H         1 <0>         0.0950
     64 H21        -1.5279    1.4817   -6.2947 H         1 <0>         0.1331
     65 H22        -2.3401    2.8659   -5.5250 H         1 <0>         0.1340
     66 H23        -2.3287    2.1598   -9.3154 H         1 <0>         0.1356
     67 H24        -2.0708    0.6969   -8.3101 H         1 <0>         0.1344
     68 H25        -4.6625    1.6553   -9.6470 H         1 <0>         0.0985
     69 H26        -3.9348    0.0155   -9.6772 H         1 <0>         0.1169
     70 H27        -5.9086    0.7935   -7.8583 H         1 <0>         0.1056
     71 H28        -4.7147   -0.4989   -7.5309 H         1 <0>         0.1038
     72 H29        -3.7290    0.8053   -5.9278 H         1 <0>         0.1308
     73 H30        -4.9439    2.0802   -6.2283 H         1 <0>         0.1328
     74 H31        -3.5509    3.1519   -7.6208 H         1 <0>         0.4274
@<TRIPOS>BOND
     1    1    6 ar
     2    1    2 ar
     3    1   44 1
     4    2    3 ar
     5    2   45 1
     6    3    4 ar
     7    3   20 1
     8    4    5 ar
     9    4   46 1
    10    5    6 ar
    11    5    7 1
    12    6   47 1
    13    7    8 am
    14    7   48 1
    15    8    9 2
    16    8   10 1
    17   10   15 ar
    18   10   11 ar
    19   11   12 ar
    20   11   49 1
    21   12   13 ar
    22   12   50 1
    23   13   14 ar
    24   13   51 1
    25   14   15 ar
    26   14   16 1
    27   15   52 1
    28   16   17 1
    29   16   18 1
    30   16   19 1
    31   20   25 1
    32   20   21 2
    33   21   22 1
    34   21   53 1
    35   22   23 2
    36   22   54 1
    37   23   24 1
    38   24   28 2
    39   24   25 1
    40   25   26 1
    41   26   27 2
    42   27   28 1
    43   27   29 1
    44   28   55 1
    45   29   34 ar
    46   29   30 ar
    47   30   31 ar
    48   30   56 1
    49   31   32 ar
    50   31   57 1
    51   32   33 ar
    52   33   34 ar
    53   33   35 1
    54   34   58 1
    55   35   36 1
    56   35   59 1
    57   36   37 1
    58   36   60 1
    59   36   61 1
    60   37   38 1
    61   37   62 1
    62   37   63 1
    63   38   39 1
    64   38   64 1
    65   38   65 1
    66   39   43 1
    67   39   40 1
    68   39   74 1
    69   40   41 1
    70   40   66 1
    71   40   67 1
    72   41   42 1
    73   41   68 1
    74   41   69 1
    75   42   43 1
    76   42   70 1
    77   42   71 1
    78   43   72 1
    79   43   73 1
@<TRIPOS>MOLECULE
CHEMBL254966
   68    73     0     0     0
SMALL
USER_CHARGES

@<TRIPOS>ATOM
      1 C1         -0.0975    0.9112    0.1167 C.ar      1 <0>        -0.0961
      2 C2          0.9526    1.8026    0.2093 C.ar      1 <0>        -0.0632
      3 C3          2.2670    1.3425    0.1325 C.ar      1 <0>        -0.0448
      4 C4          2.5157   -0.0183   -0.0374 C.ar      1 <0>        -0.0920
      5 C5          1.4552   -0.9061   -0.1289 C.ar      1 <0>         0.1518
      6 C6          0.1488   -0.4382   -0.0517 C.ar      1 <0>        -0.1065
      7 N1          1.6999   -2.2734   -0.2999 N.am      1 <0>        -0.6771
      8 C7          2.7417   -2.6827   -1.0506 C.2       1 <0>         0.5195
      9 O1          3.5168   -1.8693   -1.5074 O.2       1 <0>        -0.5107
     10 C8          2.9435   -4.1512   -1.3226 C.3       1 <0>        -0.1017
     11 C9          4.1690   -4.3397   -2.1791 C.ar      1 <0>        -0.0723
     12 C10         4.0571   -4.3308   -3.5569 C.ar      1 <0>        -0.0898
     13 C11         5.1807   -4.5036   -4.3430 C.ar      1 <0>        -0.1074
     14 C12         6.4177   -4.6856   -3.7506 C.ar      1 <0>        -0.0302
     15 C13         6.5291   -4.6945   -2.3716 C.ar      1 <0>        -0.1093
     16 C14         5.4056   -4.5159   -1.5866 C.ar      1 <0>        -0.0928
     17 Cl1         7.8294   -4.9033   -4.7372 Cl        1 <0>        -0.0635
     18 C15         3.3955    2.2975    0.2306 C.2       1 <0>         0.1511
     19 C16         3.4943    3.5191   -0.4130 C.2       1 <0>         0.0971
     20 N2          4.7030    4.0568   -0.0298 N.pl3     1 <0>        -0.4985
     21 H1          5.0668    4.9110   -0.3109 H         1 <0>         0.4633
     22 C17         5.2872    3.1766    0.8089 C.cat     1 <0>         0.3789
     23 N3          4.5103    2.1405    0.9659 N.pl3     1 <0>        -0.4693
     24 C18         6.6292    3.3642    1.4684 C.3       1 <0>        -0.1453
     25 C19         7.0352    4.7888    1.8512 C.3       1 <0>        -0.1421
     26 C20         7.7131    4.0913    0.6702 C.3       1 <0>        -0.1427
     27 C21         2.5054    4.1226   -1.3246 C.ar      1 <0>         0.2603
     28 C22         2.4541    5.5123   -1.5008 C.ar      1 <0>        -0.2645
     29 C23         1.5099    6.0309   -2.3657 C.ar      1 <0>         0.2127
     30 N4          0.6873    5.2072   -2.9981 N.ar      1 <0>        -0.5366
     31 C24         0.7569    3.8966   -2.8138 C.ar      1 <0>         0.5795
     32 N5          1.6484    3.3547   -1.9996 N.ar      1 <0>        -0.5298
     33 N6         -0.1233    3.0720   -3.4953 N.pl3     1 <0>        -0.6255
     34 C25        -0.9958    3.6132   -4.4448 C.ar      1 <0>         0.1464
     35 C26        -0.5987    4.7016   -5.2131 C.ar      1 <0>        -0.0860
     36 C27        -1.4573    5.2400   -6.1528 C.ar      1 <0>        -0.1038
     37 C28        -2.7148    4.7009   -6.3347 C.ar      1 <0>        -0.0950
     38 C29        -3.1232    3.6081   -5.5684 C.ar      1 <0>        -0.1151
     39 C30        -2.2546    3.0609   -4.6239 C.ar      1 <0>        -0.0822
     40 C31        -4.4699    3.0289   -5.7610 C.2       1 <0>         0.5635
     41 O2         -4.8235    2.0772   -5.0925 O.2       1 <0>        -0.5380
     42 N7         -5.3054    3.5561   -6.6777 N.am      1 <0>        -0.8474
     43 H2         -1.1145    1.2689    0.1805 H         1 <0>         0.1401
     44 H3          0.7562    2.8564    0.3408 H         1 <0>         0.1218
     45 H4          3.5316   -0.3798   -0.0978 H         1 <0>         0.1421
     46 H5         -0.6765   -1.1313   -0.1232 H         1 <0>         0.1394
     47 H6          1.1198   -2.9264    0.1219 H         1 <0>         0.4189
     48 H7          3.0747   -4.6808   -0.3790 H         1 <0>         0.1132
     49 H8          2.0718   -4.5474   -1.8434 H         1 <0>         0.1143
     50 H9          3.0914   -4.1891   -4.0192 H         1 <0>         0.1307
     51 H10         5.0931   -4.4970   -5.4194 H         1 <0>         0.1361
     52 H11         7.4944   -4.8368   -1.9086 H         1 <0>         0.1353
     53 H12         5.4931   -4.5180   -0.5102 H         1 <0>         0.1294
     54 H13         6.9462    2.5559    2.1274 H         1 <0>         0.1647
     55 H14         6.3317    5.5904    1.6259 H         1 <0>         0.1086
     56 H15         7.6195    4.9181    2.7622 H         1 <0>         0.1326
     57 H16         8.7434    3.7616    0.8043 H         1 <0>         0.1326
     58 H17         7.4556    4.4339   -0.3320 H         1 <0>         0.1087
     59 H18         3.1362    6.1621   -0.9727 H         1 <0>         0.1483
     60 H19         1.4427    7.0971   -2.5243 H         1 <0>         0.1857
     61 H20        -0.1344    2.1191   -3.3139 H         1 <0>         0.4283
     62 H21         0.3839    5.1280   -5.0750 H         1 <0>         0.1382
     63 H22        -1.1433    6.0858   -6.7465 H         1 <0>         0.1368
     64 H23        -3.3829    5.1248   -7.0698 H         1 <0>         0.1315
     65 H24        -2.5634    2.2125   -4.0312 H         1 <0>         0.1404
     66 H25        -5.0233    4.3156   -7.2111 H         1 <0>         0.4026
     67 H26        -6.1889    3.1762   -6.8040 H         1 <0>         0.4093
     68 H27         4.7079    1.3730    1.5253 H         1 <0>         0.4656
@<TRIPOS>BOND
     1    1    6 ar
     2    1    2 ar
     3    1   43 1
     4    2    3 ar
     5    2   44 1
     6    3    4 ar
     7    3   18 1
     8    4    5 ar
     9    4   45 1
    10    5    6 ar
    11    5    7 1
    12    6   46 1
    13    7    8 am
    14    7   47 1
    15    8    9 2
    16    8   10 1
    17   10   11 1
    18   10   48 1
    19   10   49 1
    20   11   16 ar
    21   11   12 ar
    22   12   13 ar
    23   12   50 1
    24   13   14 ar
    25   13   51 1
    26   14   15 ar
    27   14   17 1
    28   15   16 ar
    29   15   52 1
    30   16   53 1
    31   18   23 1
    32   18   19 2
    33   19   20 1
    34   19   27 1
    35   20   21 1
    36   20   22 1
    37   22   23 2
    38   22   24 1
    39   23   68 1
    40   24   26 1
    41   24   25 1
    42   24   54 1
    43   25   26 1
    44   25   55 1
    45   25   56 1
    46   26   57 1
    47   26   58 1
    48   27   32 ar
    49   27   28 ar
    50   28   29 ar
    51   28   59 1
    52   29   30 ar
    53   29   60 1
    54   30   31 ar
    55   31   32 ar
    56   31   33 1
    57   33   34 1
    58   33   61 1
    59   34   39 ar
    60   34   35 ar
    61   35   36 ar
    62   35   62 1
    63   36   37 ar
    64   36   63 1
    65   37   38 ar
    66   37   64 1
    67   38   39 ar
    68   38   40 1
    69   39   65 1
    70   40   41 2
    71   40   42 am
    72   42   66 1
    73   42   67 1
@<TRIPOS>MOLECULE
CHEMBL254966__1
   67    72     0     0     0
SMALL
USER_CHARGES

@<TRIPOS>ATOM
      1 C1         -0.6209    1.4561   -0.3305 C.ar      1 <0>        -0.1154
      2 C2          0.7510    1.6064   -0.3353 C.ar      1 <0>        -0.0648
      3 C3          1.5765    0.4827   -0.2575 C.ar      1 <0>        -0.0227
      4 C4          1.0090   -0.7896   -0.1751 C.ar      1 <0>        -0.1024
      5 C5         -0.3697   -0.9292   -0.1710 C.ar      1 <0>         0.1340
      6 C6         -1.1826    0.1958   -0.2488 C.ar      1 <0>        -0.1265
      7 N1         -0.9437   -2.2028   -0.0890 N.am      1 <0>        -0.6749
      8 C7         -0.3356   -3.1715    0.6240 C.2       1 <0>         0.5117
      9 O1          0.6628   -2.9172    1.2641 O.2       1 <0>        -0.5067
     10 C8         -0.8961   -4.5703    0.6260 C.3       1 <0>        -0.1012
     11 C9         -0.0375   -5.4542    1.4936 C.ar      1 <0>        -0.0678
     12 C10         1.0372   -6.1279    0.9439 C.ar      1 <0>        -0.0921
     13 C11         1.8249   -6.9388    1.7391 C.ar      1 <0>        -0.1088
     14 C12         1.5377   -7.0761    3.0855 C.ar      1 <0>        -0.0313
     15 C13         0.4620   -6.4016    3.6351 C.ar      1 <0>        -0.1080
     16 C14        -0.3216   -5.5866    2.8400 C.ar      1 <0>        -0.0905
     17 Cl1         2.5264   -8.0947    4.0848 Cl        1 <0>        -0.0682
     18 C15         3.0451    0.6401   -0.2629 C.2       1 <0>         0.0888
     19 C16         3.7849    1.5574    0.4631 C.2       1 <0>         0.0393
     20 N2          5.0830    1.3572    0.1631 N.2       1 <0>        -0.4505
     21 H1          3.7445   -0.8263   -1.5913 H         1 <0>         0.4228
     22 C17         5.1864    0.3821   -0.6949 C.2       1 <0>         0.2556
     23 N3          3.9504   -0.0980   -0.9846 N.pl3     1 <0>        -0.5557
     24 C18         6.4786   -0.1366   -1.2712 C.3       1 <0>        -0.0782
     25 C19         6.4490   -1.5065   -1.9520 C.3       1 <0>        -0.1751
     26 C20         7.1225   -1.3445   -0.5877 C.3       1 <0>        -0.1540
     27 C21         3.2488    2.5716    1.3965 C.ar      1 <0>         0.3072
     28 C22         4.0454    3.0783    2.4301 C.ar      1 <0>        -0.2463
     29 C23         3.5007    4.0246    3.2773 C.ar      1 <0>         0.1895
     30 N4          2.2512    4.4214    3.0885 N.ar      1 <0>        -0.5595
     31 C24         1.5189    3.9253    2.1018 C.ar      1 <0>         0.5620
     32 N5          2.0016    3.0216    1.2636 N.ar      1 <0>        -0.5510
     33 N6          0.2160    4.3677    1.9401 N.pl3     1 <0>        -0.6389
     34 C25        -0.2728    5.4085    2.7360 C.ar      1 <0>         0.1640
     35 C26         0.5758    6.4336    3.1381 C.ar      1 <0>        -0.0861
     36 C27         0.0975    7.4644    3.9247 C.ar      1 <0>        -0.1053
     37 C28        -1.2258    7.4828    4.3167 C.ar      1 <0>        -0.1049
     38 C29        -2.0860    6.4580    3.9188 C.ar      1 <0>        -0.1191
     39 C30        -1.6050    5.4210    3.1194 C.ar      1 <0>        -0.0902
     40 C31        -3.5039    6.4751    4.3378 C.2       1 <0>         0.5650
     41 O2         -4.2511    5.5817    3.9901 O.2       1 <0>        -0.5398
     42 N7         -3.9677    7.4813    5.1053 N.am      1 <0>        -0.8501
     43 H2         -1.2578    2.3265   -0.3862 H         1 <0>         0.1284
     44 H3          1.1860    2.5928   -0.3995 H         1 <0>         0.1582
     45 H4          1.6421   -1.6625   -0.1151 H         1 <0>         0.1295
     46 H5         -2.2568    0.0846   -0.2455 H         1 <0>         0.1268
     47 H6         -1.7793   -2.3886   -0.5454 H         1 <0>         0.4123
     48 H7         -1.9130   -4.5538    1.0181 H         1 <0>         0.1101
     49 H8         -0.9055   -4.9594   -0.3921 H         1 <0>         0.1104
     50 H9          1.2611   -6.0209   -0.1072 H         1 <0>         0.1294
     51 H10         2.6643   -7.4653    1.3094 H         1 <0>         0.1345
     52 H11         0.2371   -6.5086    4.6859 H         1 <0>         0.1350
     53 H12        -1.1585   -5.0563    3.2699 H         1 <0>         0.1306
     54 H13         7.1439    0.6191   -1.6890 H         1 <0>         0.1373
     55 H14         5.4949   -2.0326   -1.9829 H         1 <0>         0.0906
     56 H15         7.0948   -1.6523   -2.8179 H         1 <0>         0.1108
     57 H16         8.2113   -1.3838   -0.5562 H         1 <0>         0.1098
     58 H17         6.6114   -1.7641    0.2788 H         1 <0>         0.0984
     59 H18         5.0617    2.7375    2.5626 H         1 <0>         0.1521
     60 H19         4.0877    4.4360    4.0852 H         1 <0>         0.1736
     61 H20        -0.3571    3.9555    1.2749 H         1 <0>         0.4225
     62 H21         1.6123    6.4242    2.8350 H         1 <0>         0.1403
     63 H22         0.7614    8.2580    4.2340 H         1 <0>         0.1330
     64 H23        -1.5956    8.2899    4.9317 H         1 <0>         0.1266
     65 H24        -2.2669    4.6280    2.8044 H         1 <0>         0.1379
     66 H25        -3.3713    8.1942    5.3828 H         1 <0>         0.4018
     67 H26        -4.8978    7.4925    5.3802 H         1 <0>         0.4062
@<TRIPOS>BOND
     1    1    6 ar
     2    1    2 ar
     3    1   43 1
     4    2    3 ar
     5    2   44 1
     6    3    4 ar
     7    3   18 1
     8    4    5 ar
     9    4   45 1
    10    5    6 ar
    11    5    7 1
    12    6   46 1
    13    7    8 am
    14    7   47 1
    15    8    9 2
    16    8   10 1
    17   10   11 1
    18   10   48 1
    19   10   49 1
    20   11   16 ar
    21   11   12 ar
    22   12   13 ar
    23   12   50 1
    24   13   14 ar
    25   13   51 1
    26   14   15 ar
    27   14   17 1
    28   15   16 ar
    29   15   52 1
    30   16   53 1
    31   18   19 2
    32   18   23 1
    33   19   20 1
    34   19   27 1
    35   20   22 2
    36   21   23 1
    37   22   24 1
    38   22   23 1
    39   24   26 1
    40   24   25 1
    41   24   54 1
    42   25   26 1
    43   25   55 1
    44   25   56 1
    45   26   57 1
    46   26   58 1
    47   27   32 ar
    48   27   28 ar
    49   28   29 ar
    50   28   59 1
    51   29   30 ar
    52   29   60 1
    53   30   31 ar
    54   31   32 ar
    55   31   33 1
    56   33   34 1
    57   33   61 1
    58   34   39 ar
    59   34   35 ar
    60   35   36 ar
    61   35   62 1
    62   36   37 ar
    63   36   63 1
    64   37   38 ar
    65   37   64 1
    66   38   39 ar
    67   38   40 1
    68   39   65 1
    69   40   41 2
    70   40   42 am
    71   42   66 1
    72   42   67 1
@<TRIPOS>MOLECULE
CHEMBL254966__2
   67    72     0     0     0
SMALL
USER_CHARGES

@<TRIPOS>ATOM
      1 C1         -0.7887    0.8632   -0.1340 C.ar      1 <0>        -0.1090
      2 C2          0.5153    1.2934    0.0087 C.ar      1 <0>        -0.0778
      3 C3          1.5688    0.4701   -0.3883 C.ar      1 <0>         0.0119
      4 C4          1.3005   -0.7864   -0.9282 C.ar      1 <0>        -0.0843
      5 C5         -0.0119   -1.2102   -1.0674 C.ar      1 <0>         0.1374
      6 C6         -1.0552   -0.3826   -0.6694 C.ar      1 <0>        -0.1352
      7 N1         -0.2864   -2.4709   -1.6094 N.am      1 <0>        -0.6757
      8 C7          0.5557   -3.4989   -1.3847 C.2       1 <0>         0.5091
      9 O1          1.5048   -3.3545   -0.6435 O.2       1 <0>        -0.4983
     10 C8          0.3180   -4.8278   -2.0545 C.3       1 <0>        -0.1012
     11 C9          1.3932   -5.7989   -1.6396 C.ar      1 <0>        -0.0660
     12 C10         2.5605   -5.8925   -2.3743 C.ar      1 <0>        -0.0904
     13 C11         3.5470   -6.7828   -1.9943 C.ar      1 <0>        -0.1083
     14 C12         3.3661   -7.5805   -0.8785 C.ar      1 <0>        -0.0316
     15 C13         2.1976   -7.4864   -0.1436 C.ar      1 <0>        -0.1087
     16 C14         1.2142   -6.5916   -0.5213 C.ar      1 <0>        -0.0906
     17 Cl1         4.6044   -8.6995   -0.4009 Cl        1 <0>        -0.0707
     18 C15         2.9691    0.9302   -0.2369 C.2       1 <0>         0.1224
     19 C16         3.4253    2.2294   -0.3789 C.2       1 <0>        -0.0028
     20 N2          4.7828    2.1853   -0.1505 N.pl3     1 <0>        -0.5479
     21 H1          5.3944    2.9378   -0.1759 H         1 <0>         0.4222
     22 C17         5.1047    0.9027    0.1154 C.2       1 <0>         0.2754
     23 N3          4.0307    0.1637    0.0696 N.2       1 <0>        -0.4635
     24 C18         6.4918    0.4011    0.4243 C.3       1 <0>        -0.0823
     25 C19         7.6680    1.3135    0.0705 C.3       1 <0>        -0.1746
     26 C20         7.3983    0.0565   -0.7592 C.3       1 <0>        -0.1524
     27 C21         2.6206    3.4198   -0.7081 C.ar      1 <0>         0.2992
     28 C22         3.0538    4.6987   -0.3320 C.ar      1 <0>        -0.2793
     29 C23         2.2653    5.7838   -0.6630 C.ar      1 <0>         0.1988
     30 N4          1.1323    5.5860   -1.3204 N.ar      1 <0>        -0.5583
     31 C24         0.7454    4.3660   -1.6644 C.ar      1 <0>         0.5686
     32 N5          1.4708    3.2980   -1.3736 N.ar      1 <0>        -0.5351
     33 N6         -0.4471    4.2050   -2.3509 N.pl3     1 <0>        -0.6343
     34 C25        -1.1668    5.3266   -2.7749 C.ar      1 <0>         0.1619
     35 C26        -0.4928    6.4763   -3.1705 C.ar      1 <0>        -0.0871
     36 C27        -1.1995    7.5873   -3.5903 C.ar      1 <0>        -0.1055
     37 C28        -2.5793    7.5629   -3.6196 C.ar      1 <0>        -0.1037
     38 C29        -3.2655    6.4135   -3.2245 C.ar      1 <0>        -0.1182
     39 C30        -2.5522    5.2901   -2.8061 C.ar      1 <0>        -0.0878
     40 C31        -4.7436    6.3849   -3.2545 C.2       1 <0>         0.5646
     41 O2         -5.3392    5.3829   -2.9099 O.2       1 <0>        -0.5385
     42 N7         -5.4304    7.4698   -3.6639 N.am      1 <0>        -0.8499
     43 H2         -1.6029    1.5005    0.1777 H         1 <0>         0.1248
     44 H3          0.7197    2.2677    0.4275 H         1 <0>         0.1123
     45 H4          2.1126   -1.4277   -1.2375 H         1 <0>         0.1387
     46 H5         -2.0772   -0.7143   -0.7785 H         1 <0>         0.1250
     47 H6         -1.0827   -2.6048   -2.1469 H         1 <0>         0.4108
     48 H7         -0.6562   -5.2156   -1.7569 H         1 <0>         0.1087
     49 H8          0.3427   -4.6989   -3.1366 H         1 <0>         0.1094
     50 H9          2.7015   -5.2700   -3.2455 H         1 <0>         0.1299
     51 H10         4.4588   -6.8561   -2.5685 H         1 <0>         0.1339
     52 H11         2.0557   -8.1091    0.7273 H         1 <0>         0.1340
     53 H12         0.3041   -6.5146    0.0549 H         1 <0>         0.1303
     54 H13         6.5815   -0.2109    1.3218 H         1 <0>         0.1391
     55 H14         7.4385    2.2764   -0.3857 H         1 <0>         0.0914
     56 H15         8.5317    1.3019    0.7353 H         1 <0>         0.1115
     57 H16         8.0845   -0.7819   -0.6401 H         1 <0>         0.1105
     58 H17         6.9913    0.1926   -1.7611 H         1 <0>         0.0982
     59 H18         3.9818    4.8327    0.2040 H         1 <0>         0.1413
     60 H19         2.5692    6.7830   -0.3882 H         1 <0>         0.1743
     61 H20        -0.7828    3.3143   -2.5376 H         1 <0>         0.4269
     62 H21         0.5867    6.5014   -3.1494 H         1 <0>         0.1387
     63 H22        -0.6704    8.4777   -3.8962 H         1 <0>         0.1330
     64 H23        -3.1279    8.4333   -3.9480 H         1 <0>         0.1272
     65 H24        -3.0777    4.3964   -2.5035 H         1 <0>         0.1396
     66 H25        -4.9551    8.2695   -3.9389 H         1 <0>         0.4017
     67 H26        -6.4000    7.4511   -3.6836 H         1 <0>         0.4066
@<TRIPOS>BOND
     1    1    6 ar
     2    1    2 ar
     3    1   43 1
     4    2    3 ar
     5    2   44 1
     6    3    4 ar
     7    3   18 1
     8    4    5 ar
     9    4   45 1
    10    5    6 ar
    11    5    7 1
    12    6   46 1
    13    7    8 am
    14    7   47 1
    15    8    9 2
    16    8   10 1
    17   10   11 1
    18   10   48 1
    19   10   49 1
    20   11   16 ar
    21   11   12 ar
    22   12   13 ar
    23   12   50 1
    24   13   14 ar
    25   13   51 1
    26   14   15 ar
    27   14   17 1
    28   15   16 ar
    29   15   52 1
    30   16   53 1
    31   18   23 1
    32   18   19 2
    33   19   20 1
    34   19   27 1
    35   20   21 1
    36   20   22 1
    37   22   23 2
    38   22   24 1
    39   24   26 1
    40   24   25 1
    41   24   54 1
    42   25   26 1
    43   25   55 1
    44   25   56 1
    45   26   57 1
    46   26   58 1
    47   27   32 ar
    48   27   28 ar
    49   28   29 ar
    50   28   59 1
    51   29   30 ar
    52   29   60 1
    53   30   31 ar
    54   31   32 ar
    55   31   33 1
    56   33   34 1
    57   33   61 1
    58   34   39 ar
    59   34   35 ar
    60   35   36 ar
    61   35   62 1
    62   36   37 ar
    63   36   63 1
    64   37   38 ar
    65   37   64 1
    66   38   39 ar
    67   38   40 1
    68   39   65 1
    69   40   41 2
    70   40   42 am
    71   42   66 1
    72   42   67 1
@<TRIPOS>MOLECULE
CHEMBL247424
   63    67     0     0     0
SMALL
USER_CHARGES

@<TRIPOS>ATOM
      1 C1         -0.0036    1.2846    0.0416 C.ar      1 <0>        -0.1721
      2 C2          1.1433    2.0398   -0.1471 C.ar      1 <0>        -0.0305
      3 C3          2.3592    1.4228   -0.3574 C.ar      1 <0>        -0.2079
      4 C4          2.4413    0.0360   -0.3812 C.ar      1 <0>         0.2735
      5 C5          1.2818   -0.7316   -0.1904 C.ar      1 <0>        -0.2249
      6 C6          0.0578   -0.0914    0.0214 C.ar      1 <0>        -0.0334
      7 C7          1.3546   -2.2036   -0.2137 C.2       1 <0>         0.5828
      8 O1          2.4343   -2.7579   -0.2920 O.2       1 <0>        -0.5439
      9 N1          0.2246   -2.9354   -0.1483 N.am      1 <0>        -0.6609
     10 C8          0.2983   -4.3310   -0.0611 C.ar      1 <0>         0.1649
     11 C9         -0.6775   -5.1167   -0.6601 C.ar      1 <0>        -0.1212
     12 C10        -0.6060   -6.4939   -0.5749 C.ar      1 <0>        -0.0570
     13 C11         0.4389   -7.0950    0.1082 C.ar      1 <0>         0.0146
     14 C12         1.4192   -6.3096    0.7102 C.ar      1 <0>         0.0473
     15 C13         1.3500   -4.9295    0.6193 C.ar      1 <0>        -0.0888
     16 O2          2.3276   -7.1314    1.3127 O.3       1 <0>        -0.2881
     17 C14         1.6754   -8.4103    1.4234 C.3       1 <0>         0.5723
     18 O3          0.7339   -8.4095    0.3341 O.3       1 <0>        -0.2833
     19 F1          2.6008   -9.4486    1.2726 F         1 <0>        -0.1138
     20 F2          1.0093   -8.5179    2.6489 F         1 <0>        -0.1474
     21 N2          3.6641   -0.5874   -0.5931 N.pl3     1 <0>        -0.7330
     22 C15         4.8468    0.2123   -0.9216 C.3       1 <0>         0.1391
     23 C16         6.0346   -0.6977   -1.1007 C.ar      1 <0>         0.0608
     24 C17         6.8444   -1.0288   -0.0220 C.ar      1 <0>        -0.1502
     25 C18         7.9245   -1.8652   -0.2191 C.ar      1 <0>         0.1588
     26 N3          8.1946   -2.3513   -1.4160 N.ar      1 <0>        -0.4964
     27 C19         7.4471   -2.0589   -2.4689 C.ar      1 <0>         0.4435
     28 C20         6.3394   -1.2266   -2.3417 C.ar      1 <0>        -0.1819
     29 N4          7.7684   -2.5929   -3.7114 N.pl3     1 <0>        -0.7102
     30 C21         6.9457   -2.2737   -4.8808 C.3       1 <0>         0.1152
     31 C22         7.5121   -2.9838   -6.1120 C.3       1 <0>        -0.1590
     32 C23         6.6528   -2.6505   -7.3333 C.3       1 <0>         0.0987
     33 N5          7.1951   -3.3305   -8.5122 N.pl3     1 <0>        -0.4157
     34 C24         8.1380   -2.8365   -9.3728 C.2       1 <0>         0.0231
     35 C25         8.3452   -3.7825  -10.3085 C.2       1 <0>         0.0120
     36 N6          7.5505   -4.8257  -10.0270 N.pl3     1 <0>        -0.4721
     37 C26         6.8624   -4.5641   -8.9495 C.cat     1 <0>         0.2912
     38 H1         -0.9497    1.7776    0.2099 H         1 <0>         0.1346
     39 H2          1.0846    3.1180   -0.1298 H         1 <0>         0.1344
     40 H3          3.2481    2.0185   -0.5040 H         1 <0>         0.1304
     41 H4         -0.8390   -0.6748    0.1691 H         1 <0>         0.1296
     42 H5         -0.6397   -2.4952   -0.1616 H         1 <0>         0.4212
     43 H6         -1.4932   -4.6507   -1.1928 H         1 <0>         0.1534
     44 H7         -1.3663   -7.1029   -1.0412 H         1 <0>         0.1545
     45 H8          2.1115   -4.3188    1.0815 H         1 <0>         0.1534
     46 H9          3.7351   -1.5523   -0.5236 H         1 <0>         0.4202
     47 H10         4.6682    0.7626   -1.8454 H         1 <0>         0.0922
     48 H11         5.0463    0.9151   -0.1128 H         1 <0>         0.0973
     49 H12         6.6313   -0.6355    0.9610 H         1 <0>         0.1870
     50 H13         8.5571   -2.1249    0.6168 H         1 <0>         0.2151
     51 H14         5.7285   -0.9932   -3.2012 H         1 <0>         0.1785
     52 H15         8.5374   -3.1768   -3.8042 H         1 <0>         0.4207
     53 H16         5.9227   -2.6074   -4.7073 H         1 <0>         0.0964
     54 H17         6.9532   -1.1965   -5.0472 H         1 <0>         0.0970
     55 H18         8.5351   -2.6501   -6.2855 H         1 <0>         0.0963
     56 H19         7.5046   -4.0610   -5.9456 H         1 <0>         0.0940
     57 H20         5.6298   -2.9842   -7.1598 H         1 <0>         0.1288
     58 H21         6.6603   -1.5733   -7.4997 H         1 <0>         0.1318
     59 H22         8.6224   -1.8731   -9.3130 H         1 <0>         0.2249
     60 H23         9.0310   -3.7133  -11.1400 H         1 <0>         0.2271
     61 H24         6.1439   -5.2237   -8.4857 H         1 <0>         0.2611
     62 H25         8.9599   -2.9369   -1.5270 H         1 <0>         0.4447
     63 H26         7.4982   -5.6466  -10.5411 H         1 <0>         0.4690
@<TRIPOS>BOND
     1    1    6 ar
     2    1    2 ar
     3    1   38 1
     4    2    3 ar
     5    2   39 1
     6    3    4 ar
     7    3   40 1
     8    4    5 ar
     9    4   21 1
    10    5    6 ar
    11    5    7 1
    12    6   41 1
    13    7    8 2
    14    7    9 am
    15    9   10 1
    16    9   42 1
    17   10   15 ar
    18   10   11 ar
    19   11   12 ar
    20   11   43 1
    21   12   13 ar
    22   12   44 1
    23   13   18 1
    24   13   14 ar
    25   14   15 ar
    26   14   16 1
    27   15   45 1
    28   16   17 1
    29   17   18 1
    30   17   19 1
    31   17   20 1
    32   21   22 1
    33   21   46 1
    34   22   23 1
    35   22   47 1
    36   22   48 1
    37   23   28 ar
    38   23   24 ar
    39   24   25 ar
    40   24   49 1
    41   25   26 ar
    42   25   50 1
    43   26   27 ar
    44   26   62 1
    45   27   28 ar
    46   27   29 1
    47   28   51 1
    48   29   30 1
    49   29   52 1
    50   30   31 1
    51   30   53 1
    52   30   54 1
    53   31   32 1
    54   31   55 1
    55   31   56 1
    56   32   33 1
    57   32   57 1
    58   32   58 1
    59   33   37 1
    60   33   34 1
    61   34   35 2
    62   34   59 1
    63   35   36 1
    64   35   60 1
    65   36   37 2
    66   36   63 1
    67   37   61 1
@<TRIPOS>MOLECULE
CHEMBL247424__1
   62    66     0     0     0
SMALL
USER_CHARGES

@<TRIPOS>ATOM
      1 C1         -0.0036    1.2846    0.0416 C.ar      1 <0>        -0.1752
      2 C2          1.1433    2.0398   -0.1471 C.ar      1 <0>        -0.0314
      3 C3          2.3592    1.4228   -0.3574 C.ar      1 <0>        -0.2081
      4 C4          2.4413    0.0360   -0.3812 C.ar      1 <0>         0.2760
      5 C5          1.2818   -0.7316   -0.1904 C.ar      1 <0>        -0.2254
      6 C6          0.0578   -0.0914    0.0214 C.ar      1 <0>        -0.0333
      7 C7          1.3546   -2.2036   -0.2137 C.2       1 <0>         0.5814
      8 O1          2.4343   -2.7579   -0.2920 O.2       1 <0>        -0.5404
      9 N1          0.2246   -2.9354   -0.1483 N.am      1 <0>        -0.6614
     10 C8          0.2983   -4.3310   -0.0611 C.ar      1 <0>         0.1660
     11 C9         -0.6775   -5.1167   -0.6601 C.ar      1 <0>        -0.1214
     12 C10        -0.6060   -6.4939   -0.5749 C.ar      1 <0>        -0.0567
     13 C11         0.4389   -7.0950    0.1082 C.ar      1 <0>         0.0139
     14 C12         1.4192   -6.3096    0.7102 C.ar      1 <0>         0.0476
     15 C13         1.3500   -4.9295    0.6193 C.ar      1 <0>        -0.0887
     16 O2          2.3276   -7.1314    1.3127 O.3       1 <0>        -0.2873
     17 C14         1.6754   -8.4103    1.4234 C.3       1 <0>         0.5719
     18 O3          0.7339   -8.4095    0.3341 O.3       1 <0>        -0.2831
     19 F1          2.6008   -9.4486    1.2726 F         1 <0>        -0.1138
     20 F2          1.0093   -8.5179    2.6489 F         1 <0>        -0.1493
     21 N2          3.6641   -0.5874   -0.5931 N.pl3     1 <0>        -0.7312
     22 C15         4.8468    0.2123   -0.9216 C.3       1 <0>         0.1404
     23 C16         6.0346   -0.6977   -1.1007 C.ar      1 <0>         0.0557
     24 C17         6.8444   -1.0288   -0.0220 C.ar      1 <0>        -0.1567
     25 C18         7.9245   -1.8652   -0.2191 C.ar      1 <0>         0.1551
     26 N3          8.1946   -2.3513   -1.4160 N.ar      1 <0>        -0.5003
     27 C19         7.4471   -2.0589   -2.4689 C.ar      1 <0>         0.4472
     28 C20         6.3394   -1.2266   -2.3417 C.ar      1 <0>        -0.1812
     29 N4          7.7684   -2.5929   -3.7114 N.pl3     1 <0>        -0.6997
     30 C21         6.9457   -2.2737   -4.8808 C.3       1 <0>         0.1125
     31 C22         7.5121   -2.9838   -6.1120 C.3       1 <0>        -0.1536
     32 C23         6.6528   -2.6505   -7.3333 C.3       1 <0>         0.1117
     33 N5          7.1951   -3.3305   -8.5122 N.pl3     1 <0>        -0.4673
     34 C24         8.1376   -2.8363   -9.3730 C.2       1 <0>        -0.0601
     35 C25         8.3450   -3.7824  -10.3087 C.2       1 <0>        -0.0202
     36 N6          7.5507   -4.8258  -10.0269 N.2       1 <0>        -0.4881
     37 C26         6.8627   -4.5642   -8.9492 C.2       1 <0>         0.1830
     38 H1         -0.9497    1.7776    0.2099 H         1 <0>         0.1329
     39 H2          1.0846    3.1180   -0.1298 H         1 <0>         0.1330
     40 H3          3.2481    2.0185   -0.5040 H         1 <0>         0.1305
     41 H4         -0.8390   -0.6748    0.1691 H         1 <0>         0.1287
     42 H5         -0.6397   -2.4952   -0.1616 H         1 <0>         0.4204
     43 H6         -1.4932   -4.6507   -1.1928 H         1 <0>         0.1532
     44 H7         -1.3663   -7.1029   -1.0412 H         1 <0>         0.1541
     45 H8          2.1115   -4.3188    1.0815 H         1 <0>         0.1535
     46 H9          3.7351   -1.5523   -0.5236 H         1 <0>         0.4208
     47 H10         4.6682    0.7626   -1.8454 H         1 <0>         0.0923
     48 H11         5.0463    0.9151   -0.1128 H         1 <0>         0.0957
     49 H12         6.6313   -0.6355    0.9610 H         1 <0>         0.1834
     50 H13         8.5571   -2.1249    0.6168 H         1 <0>         0.2116
     51 H14         5.7285   -0.9932   -3.2012 H         1 <0>         0.1792
     52 H15         8.5374   -3.1768   -3.8042 H         1 <0>         0.4214
     53 H16         5.9227   -2.6074   -4.7073 H         1 <0>         0.0937
     54 H17         6.9532   -1.1965   -5.0472 H         1 <0>         0.0936
     55 H18         8.5351   -2.6501   -6.2855 H         1 <0>         0.0872
     56 H19         7.5046   -4.0610   -5.9456 H         1 <0>         0.0877
     57 H20         5.6298   -2.9842   -7.1598 H         1 <0>         0.1016
     58 H21         6.6603   -1.5733   -7.4997 H         1 <0>         0.0994
     59 H22         8.6217   -1.8727   -9.3135 H         1 <0>         0.1757
     60 H23         9.0306   -3.7131  -11.1403 H         1 <0>         0.1730
     61 H24         6.1446   -5.2241   -8.4852 H         1 <0>         0.2050
     62 H25         8.9599   -2.9369   -1.5270 H         1 <0>         0.4440
@<TRIPOS>BOND
     1    1    6 ar
     2    1    2 ar
     3    1   38 1
     4    2    3 ar
     5    2   39 1
     6    3    4 ar
     7    3   40 1
     8    4    5 ar
     9    4   21 1
    10    5    6 ar
    11    5    7 1
    12    6   41 1
    13    7    8 2
    14    7    9 am
    15    9   10 1
    16    9   42 1
    17   10   15 ar
    18   10   11 ar
    19   11   12 ar
    20   11   43 1
    21   12   13 ar
    22   12   44 1
    23   13   18 1
    24   13   14 ar
    25   14   15 ar
    26   14   16 1
    27   15   45 1
    28   16   17 1
    29   17   18 1
    30   17   19 1
    31   17   20 1
    32   21   22 1
    33   21   46 1
    34   22   23 1
    35   22   47 1
    36   22   48 1
    37   23   28 ar
    38   23   24 ar
    39   24   25 ar
    40   24   49 1
    41   25   26 ar
    42   25   50 1
    43   26   27 ar
    44   26   62 1
    45   27   28 ar
    46   27   29 1
    47   28   51 1
    48   29   30 1
    49   29   52 1
    50   30   31 1
    51   30   53 1
    52   30   54 1
    53   31   32 1
    54   31   55 1
    55   31   56 1
    56   32   33 1
    57   32   57 1
    58   32   58 1
    59   33   37 1
    60   33   34 1
    61   34   35 2
    62   34   59 1
    63   35   36 1
    64   35   60 1
    65   36   37 2
    66   37   61 1
@<TRIPOS>MOLECULE
CHEMBL247792
   60    64     0     0     0
SMALL
USER_CHARGES

@<TRIPOS>ATOM
      1 C1         -0.0036    1.2846    0.0416 C.ar      1 <0>        -0.1719
      2 C2          1.1433    2.0398   -0.1471 C.ar      1 <0>        -0.0307
      3 C3          2.3592    1.4228   -0.3574 C.ar      1 <0>        -0.2083
      4 C4          2.4413    0.0360   -0.3812 C.ar      1 <0>         0.2729
      5 C5          1.2818   -0.7316   -0.1904 C.ar      1 <0>        -0.2245
      6 C6          0.0578   -0.0914    0.0214 C.ar      1 <0>        -0.0334
      7 C7          1.3546   -2.2036   -0.2137 C.2       1 <0>         0.5824
      8 O1          2.4343   -2.7579   -0.2920 O.2       1 <0>        -0.5437
      9 N1          0.2246   -2.9354   -0.1483 N.am      1 <0>        -0.6606
     10 C8          0.2983   -4.3310   -0.0611 C.ar      1 <0>         0.1638
     11 C9         -0.6775   -5.1167   -0.6601 C.ar      1 <0>        -0.1213
     12 C10        -0.6060   -6.4939   -0.5749 C.ar      1 <0>        -0.0571
     13 C11         0.4389   -7.0950    0.1082 C.ar      1 <0>         0.0156
     14 C12         1.4192   -6.3096    0.7102 C.ar      1 <0>         0.0477
     15 C13         1.3500   -4.9295    0.6193 C.ar      1 <0>        -0.0887
     16 O2          2.3276   -7.1314    1.3127 O.3       1 <0>        -0.2878
     17 C14         1.6754   -8.4103    1.4234 C.3       1 <0>         0.5724
     18 O3          0.7339   -8.4095    0.3341 O.3       1 <0>        -0.2830
     19 F1          2.6008   -9.4486    1.2726 F         1 <0>        -0.1131
     20 F2          1.0093   -8.5179    2.6489 F         1 <0>        -0.1472
     21 N2          3.6641   -0.5874   -0.5931 N.pl3     1 <0>        -0.7332
     22 C15         4.8468    0.2123   -0.9216 C.3       1 <0>         0.1395
     23 C16         6.0346   -0.6977   -1.1007 C.ar      1 <0>         0.0610
     24 C17         6.8444   -1.0288   -0.0220 C.ar      1 <0>        -0.1501
     25 C18         7.9245   -1.8652   -0.2191 C.ar      1 <0>         0.1613
     26 N3          8.1946   -2.3513   -1.4160 N.ar      1 <0>        -0.4950
     27 C19         7.4471   -2.0589   -2.4689 C.ar      1 <0>         0.4440
     28 C20         6.3394   -1.2266   -2.3417 C.ar      1 <0>        -0.1834
     29 N4          7.7684   -2.5929   -3.7114 N.pl3     1 <0>        -0.7110
     30 C21         6.9457   -2.2737   -4.8808 C.3       1 <0>         0.1137
     31 C22         7.5121   -2.9838   -6.1120 C.3       1 <0>        -0.0734
     32 C23         6.6658   -2.6555   -7.3149 C.2       1 <0>         0.0159
     33 C24         5.5336   -3.2857   -7.6818 C.2       1 <0>         0.0525
     34 N5          5.0908   -2.6723   -8.8226 N.pl3     1 <0>        -0.5079
     35 C25         5.9684   -1.6880   -9.1133 C.cat     1 <0>         0.3245
     36 N6          6.9050   -1.6806   -8.2045 N.pl3     1 <0>        -0.4757
     37 H1          4.2952   -2.9019   -9.3279 H         1 <0>         0.4730
     38 H2         -0.9497    1.7776    0.2099 H         1 <0>         0.1348
     39 H3          1.0846    3.1180   -0.1298 H         1 <0>         0.1343
     40 H4          3.2481    2.0185   -0.5040 H         1 <0>         0.1300
     41 H5         -0.8390   -0.6748    0.1691 H         1 <0>         0.1299
     42 H6         -0.6397   -2.4952   -0.1616 H         1 <0>         0.4210
     43 H7         -1.4932   -4.6507   -1.1928 H         1 <0>         0.1530
     44 H8         -1.3663   -7.1029   -1.0412 H         1 <0>         0.1547
     45 H9          2.1115   -4.3188    1.0815 H         1 <0>         0.1533
     46 H10         3.7351   -1.5523   -0.5236 H         1 <0>         0.4205
     47 H11         4.6682    0.7626   -1.8454 H         1 <0>         0.0906
     48 H12         5.0463    0.9151   -0.1128 H         1 <0>         0.0975
     49 H13         6.6313   -0.6355    0.9610 H         1 <0>         0.1874
     50 H14         8.5571   -2.1249    0.6168 H         1 <0>         0.2161
     51 H15         5.7285   -0.9932   -3.2012 H         1 <0>         0.1761
     52 H16         8.5374   -3.1768   -3.8042 H         1 <0>         0.4235
     53 H17         5.9227   -2.6074   -4.7073 H         1 <0>         0.0970
     54 H18         6.9532   -1.1965   -5.0472 H         1 <0>         0.0904
     55 H19         8.5351   -2.6501   -6.2855 H         1 <0>         0.1110
     56 H20         7.5046   -4.0610   -5.9456 H         1 <0>         0.1261
     57 H21         5.0652   -4.1157   -7.1739 H         1 <0>         0.2291
     58 H22         5.9037   -1.0156   -9.9560 H         1 <0>         0.2718
     59 H23         8.9599   -2.9369   -1.5270 H         1 <0>         0.4460
     60 H24         7.6565   -1.0680   -8.1777 H         1 <0>         0.4667
@<TRIPOS>BOND
     1    1    6 ar
     2    1    2 ar
     3    1   38 1
     4    2    3 ar
     5    2   39 1
     6    3    4 ar
     7    3   40 1
     8    4    5 ar
     9    4   21 1
    10    5    6 ar
    11    5    7 1
    12    6   41 1
    13    7    8 2
    14    7    9 am
    15    9   10 1
    16    9   42 1
    17   10   15 ar
    18   10   11 ar
    19   11   12 ar
    20   11   43 1
    21   12   13 ar
    22   12   44 1
    23   13   18 1
    24   13   14 ar
    25   14   15 ar
    26   14   16 1
    27   15   45 1
    28   16   17 1
    29   17   18 1
    30   17   19 1
    31   17   20 1
    32   21   22 1
    33   21   46 1
    34   22   23 1
    35   22   47 1
    36   22   48 1
    37   23   28 ar
    38   23   24 ar
    39   24   25 ar
    40   24   49 1
    41   25   26 ar
    42   25   50 1
    43   26   27 ar
    44   26   59 1
    45   27   28 ar
    46   27   29 1
    47   28   51 1
    48   29   30 1
    49   29   52 1
    50   30   31 1
    51   30   53 1
    52   30   54 1
    53   31   55 1
    54   31   56 1
    55   31   32 1
    56   32   36 1
    57   32   33 2
    58   33   57 1
    59   33   34 1
    60   34   35 1
    61   34   37 1
    62   35   58 1
    63   35   36 2
    64   36   60 1
@<TRIPOS>MOLECULE
CHEMBL247792__1
   59    63     0     0     0
SMALL
USER_CHARGES

@<TRIPOS>ATOM
      1 C1         -0.0036    1.2846    0.0416 C.ar      1 <0>        -0.1756
      2 C2          1.1433    2.0398   -0.1471 C.ar      1 <0>        -0.0316
      3 C3          2.3592    1.4228   -0.3574 C.ar      1 <0>        -0.2083
      4 C4          2.4413    0.0360   -0.3812 C.ar      1 <0>         0.2762
      5 C5          1.2818   -0.7316   -0.1904 C.ar      1 <0>        -0.2252
      6 C6          0.0578   -0.0914    0.0214 C.ar      1 <0>        -0.0331
      7 C7          1.3546   -2.2036   -0.2137 C.2       1 <0>         0.5814
      8 O1          2.4343   -2.7579   -0.2920 O.2       1 <0>        -0.5398
      9 N1          0.2246   -2.9354   -0.1483 N.am      1 <0>        -0.6615
     10 C8          0.2983   -4.3310   -0.0611 C.ar      1 <0>         0.1664
     11 C9         -0.6775   -5.1167   -0.6601 C.ar      1 <0>        -0.1212
     12 C10        -0.6060   -6.4939   -0.5749 C.ar      1 <0>        -0.0566
     13 C11         0.4389   -7.0950    0.1082 C.ar      1 <0>         0.0137
     14 C12         1.4192   -6.3096    0.7102 C.ar      1 <0>         0.0475
     15 C13         1.3500   -4.9295    0.6193 C.ar      1 <0>        -0.0886
     16 O2          2.3276   -7.1314    1.3127 O.3       1 <0>        -0.2873
     17 C14         1.6754   -8.4103    1.4234 C.3       1 <0>         0.5718
     18 O3          0.7339   -8.4095    0.3341 O.3       1 <0>        -0.2831
     19 F1          2.6008   -9.4486    1.2726 F         1 <0>        -0.1141
     20 F2          1.0093   -8.5179    2.6489 F         1 <0>        -0.1497
     21 N2          3.6641   -0.5874   -0.5931 N.pl3     1 <0>        -0.7308
     22 C15         4.8468    0.2123   -0.9216 C.3       1 <0>         0.1406
     23 C16         6.0346   -0.6977   -1.1007 C.ar      1 <0>         0.0550
     24 C17         6.8444   -1.0288   -0.0220 C.ar      1 <0>        -0.1569
     25 C18         7.9245   -1.8652   -0.2191 C.ar      1 <0>         0.1539
     26 N3          8.1946   -2.3513   -1.4160 N.ar      1 <0>        -0.5005
     27 C19         7.4471   -2.0589   -2.4689 C.ar      1 <0>         0.4476
     28 C20         6.3394   -1.2266   -2.3417 C.ar      1 <0>        -0.1803
     29 N4          7.7684   -2.5929   -3.7114 N.pl3     1 <0>        -0.6995
     30 C21         6.9457   -2.2737   -4.8808 C.3       1 <0>         0.1122
     31 C22         7.5121   -2.9838   -6.1120 C.3       1 <0>        -0.0501
     32 C23         6.6658   -2.6555   -7.3149 C.2       1 <0>        -0.0496
     33 C24         5.5325   -3.2770   -7.6930 C.2       1 <0>         0.0000
     34 N5          5.0881   -2.6854   -8.8116 N.2       1 <0>        -0.4903
     35 C25         5.9029   -1.7208   -9.1412 C.2       1 <0>         0.2056
     36 N6          6.8980   -1.6644   -8.2300 N.pl3     1 <0>        -0.5665
     37 H1          7.6400   -1.0395   -8.2259 H         1 <0>         0.4211
     38 H2         -0.9497    1.7776    0.2099 H         1 <0>         0.1328
     39 H3          1.0846    3.1180   -0.1298 H         1 <0>         0.1328
     40 H4          3.2481    2.0185   -0.5040 H         1 <0>         0.1302
     41 H5         -0.8390   -0.6748    0.1691 H         1 <0>         0.1287
     42 H6         -0.6397   -2.4952   -0.1616 H         1 <0>         0.4203
     43 H7         -1.4932   -4.6507   -1.1928 H         1 <0>         0.1533
     44 H8         -1.3663   -7.1029   -1.0412 H         1 <0>         0.1541
     45 H9          2.1115   -4.3188    1.0815 H         1 <0>         0.1534
     46 H10         3.7351   -1.5523   -0.5236 H         1 <0>         0.4209
     47 H11         4.6682    0.7626   -1.8454 H         1 <0>         0.0916
     48 H12         5.0463    0.9151   -0.1128 H         1 <0>         0.0955
     49 H13         6.6313   -0.6355    0.9610 H         1 <0>         0.1830
     50 H14         8.5571   -2.1249    0.6168 H         1 <0>         0.2112
     51 H15         5.7285   -0.9932   -3.2012 H         1 <0>         0.1786
     52 H16         8.5374   -3.1768   -3.8042 H         1 <0>         0.4208
     53 H17         5.9227   -2.6074   -4.7073 H         1 <0>         0.0959
     54 H18         6.9532   -1.1965   -5.0472 H         1 <0>         0.0877
     55 H19         8.5351   -2.6501   -6.2855 H         1 <0>         0.0849
     56 H20         7.5046   -4.0610   -5.9456 H         1 <0>         0.1022
     57 H21         5.0636   -4.1065   -7.1845 H         1 <0>         0.1712
     58 H22         5.7969   -1.0724   -9.9984 H         1 <0>         0.2144
     59 H23         8.9599   -2.9369   -1.5270 H         1 <0>         0.4437
@<TRIPOS>BOND
     1    1    6 ar
     2    1    2 ar
     3    1   38 1
     4    2    3 ar
     5    2   39 1
     6    3    4 ar
     7    3   40 1
     8    4    5 ar
     9    4   21 1
    10    5    6 ar
    11    5    7 1
    12    6   41 1
    13    7    8 2
    14    7    9 am
    15    9   10 1
    16    9   42 1
    17   10   15 ar
    18   10   11 ar
    19   11   12 ar
    20   11   43 1
    21   12   13 ar
    22   12   44 1
    23   13   18 1
    24   13   14 ar
    25   14   15 ar
    26   14   16 1
    27   15   45 1
    28   16   17 1
    29   17   18 1
    30   17   19 1
    31   17   20 1
    32   21   22 1
    33   21   46 1
    34   22   23 1
    35   22   47 1
    36   22   48 1
    37   23   28 ar
    38   23   24 ar
    39   24   25 ar
    40   24   49 1
    41   25   26 ar
    42   25   50 1
    43   26   27 ar
    44   26   59 1
    45   27   28 ar
    46   27   29 1
    47   28   51 1
    48   29   30 1
    49   29   52 1
    50   30   31 1
    51   30   53 1
    52   30   54 1
    53   31   32 1
    54   31   55 1
    55   31   56 1
    56   32   36 1
    57   32   33 2
    58   33   34 1
    59   33   57 1
    60   34   35 2
    61   35   36 1
    62   35   58 1
    63   36   37 1
@<TRIPOS>MOLECULE
CHEMBL247792__2
   59    63     0     0     0
SMALL
USER_CHARGES

@<TRIPOS>ATOM
      1 C1         -0.0036    1.2846    0.0416 C.ar      1 <0>        -0.1767
      2 C2          1.1433    2.0398   -0.1471 C.ar      1 <0>        -0.0318
      3 C3          2.3592    1.4228   -0.3574 C.ar      1 <0>        -0.2084
      4 C4          2.4413    0.0360   -0.3812 C.ar      1 <0>         0.2772
      5 C5          1.2818   -0.7316   -0.1904 C.ar      1 <0>        -0.2255
      6 C6          0.0578   -0.0914    0.0214 C.ar      1 <0>        -0.0332
      7 C7          1.3546   -2.2036   -0.2137 C.2       1 <0>         0.5810
      8 O1          2.4343   -2.7579   -0.2920 O.2       1 <0>        -0.5385
      9 N1          0.2246   -2.9354   -0.1483 N.am      1 <0>        -0.6618
     10 C8          0.2983   -4.3310   -0.0611 C.ar      1 <0>         0.1670
     11 C9         -0.6775   -5.1167   -0.6601 C.ar      1 <0>        -0.1216
     12 C10        -0.6060   -6.4939   -0.5749 C.ar      1 <0>        -0.0567
     13 C11         0.4389   -7.0950    0.1082 C.ar      1 <0>         0.0132
     14 C12         1.4192   -6.3096    0.7102 C.ar      1 <0>         0.0478
     15 C13         1.3500   -4.9295    0.6193 C.ar      1 <0>        -0.0884
     16 O2          2.3276   -7.1314    1.3127 O.3       1 <0>        -0.2870
     17 C14         1.6754   -8.4103    1.4234 C.3       1 <0>         0.5717
     18 O3          0.7339   -8.4095    0.3341 O.3       1 <0>        -0.2833
     19 F1          2.6008   -9.4486    1.2726 F         1 <0>        -0.1142
     20 F2          1.0093   -8.5179    2.6489 F         1 <0>        -0.1499
     21 N2          3.6641   -0.5874   -0.5931 N.pl3     1 <0>        -0.7300
     22 C15         4.8468    0.2123   -0.9216 C.3       1 <0>         0.1411
     23 C16         6.0346   -0.6977   -1.1007 C.ar      1 <0>         0.0527
     24 C17         6.8444   -1.0288   -0.0220 C.ar      1 <0>        -0.1588
     25 C18         7.9245   -1.8652   -0.2191 C.ar      1 <0>         0.1521
     26 N3          8.1946   -2.3513   -1.4160 N.ar      1 <0>        -0.5022
     27 C19         7.4471   -2.0589   -2.4689 C.ar      1 <0>         0.4486
     28 C20         6.3394   -1.2266   -2.3417 C.ar      1 <0>        -0.1787
     29 N4          7.7684   -2.5929   -3.7114 N.pl3     1 <0>        -0.6965
     30 C21         6.9457   -2.2737   -4.8808 C.3       1 <0>         0.1155
     31 C22         7.5121   -2.9838   -6.1120 C.3       1 <0>        -0.0400
     32 C23         6.6658   -2.6555   -7.3149 C.2       1 <0>        -0.0161
     33 C24         7.1084   -2.1364   -8.4760 C.2       1 <0>        -0.0353
     34 N5          6.0165   -1.9984   -9.2899 N.pl3     1 <0>        -0.5654
     35 C25         4.9439   -2.4384   -8.5974 C.2       1 <0>         0.1986
     36 N6          5.3406   -2.8345   -7.4189 N.2       1 <0>        -0.4917
     37 H1          6.0137   -1.6498  -10.1951 H         1 <0>         0.4273
     38 H2         -0.9497    1.7776    0.2099 H         1 <0>         0.1323
     39 H3          1.0846    3.1180   -0.1298 H         1 <0>         0.1324
     40 H4          3.2481    2.0185   -0.5040 H         1 <0>         0.1304
     41 H5         -0.8390   -0.6748    0.1691 H         1 <0>         0.1283
     42 H6         -0.6397   -2.4952   -0.1616 H         1 <0>         0.4200
     43 H7         -1.4932   -4.6507   -1.1928 H         1 <0>         0.1530
     44 H8         -1.3663   -7.1029   -1.0412 H         1 <0>         0.1537
     45 H9          2.1115   -4.3188    1.0815 H         1 <0>         0.1536
     46 H10         3.7351   -1.5523   -0.5236 H         1 <0>         0.4211
     47 H11         4.6682    0.7626   -1.8454 H         1 <0>         0.0916
     48 H12         5.0463    0.9151   -0.1128 H         1 <0>         0.0949
     49 H13         6.6313   -0.6355    0.9610 H         1 <0>         0.1816
     50 H14         8.5571   -2.1249    0.6168 H         1 <0>         0.2099
     51 H15         5.7285   -0.9932   -3.2012 H         1 <0>         0.1792
     52 H16         8.5374   -3.1768   -3.8042 H         1 <0>         0.4197
     53 H17         5.9227   -2.6074   -4.7073 H         1 <0>         0.0978
     54 H18         6.9532   -1.1965   -5.0472 H         1 <0>         0.0879
     55 H19         8.5351   -2.6501   -6.2855 H         1 <0>         0.0880
     56 H20         7.5046   -4.0610   -5.9456 H         1 <0>         0.0879
     57 H21         8.1287   -1.8781   -8.7183 H         1 <0>         0.1789
     58 H22         3.9270   -2.4624   -8.9602 H         1 <0>         0.2128
     59 H23         8.9599   -2.9369   -1.5270 H         1 <0>         0.4430
@<TRIPOS>BOND
     1    1    6 ar
     2    1    2 ar
     3    1   38 1
     4    2    3 ar
     5    2   39 1
     6    3    4 ar
     7    3   40 1
     8    4    5 ar
     9    4   21 1
    10    5    6 ar
    11    5    7 1
    12    6   41 1
    13    7    8 2
    14    7    9 am
    15    9   10 1
    16    9   42 1
    17   10   15 ar
    18   10   11 ar
    19   11   12 ar
    20   11   43 1
    21   12   13 ar
    22   12   44 1
    23   13   18 1
    24   13   14 ar
    25   14   15 ar
    26   14   16 1
    27   15   45 1
    28   16   17 1
    29   17   18 1
    30   17   19 1
    31   17   20 1
    32   21   22 1
    33   21   46 1
    34   22   23 1
    35   22   47 1
    36   22   48 1
    37   23   28 ar
    38   23   24 ar
    39   24   25 ar
    40   24   49 1
    41   25   26 ar
    42   25   50 1
    43   26   27 ar
    44   26   59 1
    45   27   28 ar
    46   27   29 1
    47   28   51 1
    48   29   30 1
    49   29   52 1
    50   30   31 1
    51   30   53 1
    52   30   54 1
    53   31   55 1
    54   31   56 1
    55   31   32 1
    56   32   36 1
    57   32   33 2
    58   33   57 1
    59   33   34 1
    60   34   35 1
    61   34   37 1
    62   35   58 1
    63   35   36 2
@<TRIPOS>MOLECULE
CHEMBL1336
   48    50     0     0     0
SMALL
USER_CHARGES

@<TRIPOS>ATOM
      1 C1         -1.0955   -5.0083   -6.9234 C.3       1 <0>         0.0847
      2 N1         -1.5520   -4.3038   -5.7228 N.am      1 <0>        -0.7137
      3 C2         -1.8827   -5.0004   -4.6175 C.2       1 <0>         0.5696
      4 O1         -1.8023   -6.2129   -4.6168 O.2       1 <0>        -0.5284
      5 C3         -2.3445   -4.2878   -3.4031 C.ar      1 <0>         0.1129
      6 C4         -2.6788   -5.0128   -2.2640 C.ar      1 <0>        -0.1883
      7 C5         -3.1110   -4.3279   -1.1310 C.ar      1 <0>         0.1595
      8 C6         -3.1903   -2.9389   -1.1877 C.ar      1 <0>        -0.1766
      9 C7         -2.8404   -2.2885   -2.3571 C.ar      1 <0>         0.1349
     10 N2         -2.4302   -2.9626   -3.4105 N.ar      1 <0>        -0.4815
     11 O2         -3.4471   -4.9979    0.0005 O.3       1 <0>        -0.2437
     12 C8         -3.4462   -6.3570   -0.0383 C.ar      1 <0>         0.0568
     13 C9         -2.2447   -7.0505   -0.0178 C.ar      1 <0>        -0.1074
     14 C10        -2.2431   -8.4307   -0.0577 C.ar      1 <0>        -0.1009
     15 C11        -3.4442   -9.1246   -0.1179 C.ar      1 <0>         0.1671
     16 C12        -4.6464   -8.4301   -0.1379 C.ar      1 <0>        -0.1272
     17 C13        -4.6469   -7.0500   -0.0928 C.ar      1 <0>        -0.0940
     18 N3         -3.4432  -10.5252   -0.1588 N.am      1 <0>        -0.6776
     19 C14        -2.5108  -11.2187    0.5239 C.2       1 <0>         0.7077
     20 O3         -1.6217  -10.6297    1.1080 O.2       1 <0>        -0.5493
     21 N4         -2.5639  -12.5649    0.5593 N.am      1 <0>        -0.6795
     22 C15        -1.6655  -13.2800    1.3600 C.ar      1 <0>         0.1700
     23 C16        -1.2529  -12.7583    2.5792 C.ar      1 <0>        -0.0742
     24 C17        -0.3670  -13.4659    3.3674 C.ar      1 <0>        -0.0871
     25 C18         0.1097  -14.6941    2.9434 C.ar      1 <0>        -0.0077
     26 C19        -0.2993  -15.2159    1.7290 C.ar      1 <0>        -0.1564
     27 C20        -1.1898  -14.5147    0.9394 C.ar      1 <0>        -0.0879
     28 C21         0.2222  -16.5533    1.2702 C.3       1 <0>         0.5112
     29 F1         -0.3299  -16.8663    0.0234 F         1 <0>        -0.1743
     30 F2          1.6160  -16.4983    1.1626 F         1 <0>        -0.1671
     31 F3         -0.1354  -17.5367    2.1987 F         1 <0>        -0.1677
     32 Cl1         1.2234  -15.5812    3.9366 Cl        1 <0>        -0.0394
     33 H1         -0.8760   -4.2843   -7.7081 H         1 <0>         0.0803
     34 H2         -0.1948   -5.5764   -6.6909 H         1 <0>         0.0631
     35 H3         -1.8761   -5.6883   -7.2645 H         1 <0>         0.0629
     36 H4         -1.6162   -3.3359   -5.7233 H         1 <0>         0.4141
     37 H5         -2.6047   -6.0902   -2.2584 H         1 <0>         0.1546
     38 H6         -3.5217   -2.3755   -0.3280 H         1 <0>         0.1523
     39 H7         -2.9005   -1.2112   -2.4052 H         1 <0>         0.1747
     40 H8         -1.3104   -6.5106    0.0290 H         1 <0>         0.1364
     41 H9         -1.3078   -8.9704   -0.0424 H         1 <0>         0.1514
     42 H10        -5.5809   -8.9693   -0.1851 H         1 <0>         0.1386
     43 H11        -5.5820   -6.5098   -0.1039 H         1 <0>         0.1400
     44 H12        -4.1137  -10.9957   -0.6785 H         1 <0>         0.4131
     45 H13        -3.2246  -13.0383    0.0299 H         1 <0>         0.4146
     46 H14        -1.6244  -11.7997    2.9103 H         1 <0>         0.1546
     47 H15        -0.0456  -13.0604    4.3154 H         1 <0>         0.1524
     48 H16        -1.5123  -14.9245   -0.0064 H         1 <0>         0.1525
@<TRIPOS>BOND
     1    1    2 1
     2    1   33 1
     3    1   34 1
     4    1   35 1
     5    2    3 am
     6    2   36 1
     7    3    4 2
     8    3    5 1
     9    5   10 ar
    10    5    6 ar
    11    6    7 ar
    12    6   37 1
    13    7    8 ar
    14    7   11 1
    15    8    9 ar
    16    8   38 1
    17    9   10 ar
    18    9   39 1
    19   11   12 1
    20   12   17 ar
    21   12   13 ar
    22   13   14 ar
    23   13   40 1
    24   14   15 ar
    25   14   41 1
    26   15   16 ar
    27   15   18 1
    28   16   17 ar
    29   16   42 1
    30   17   43 1
    31   18   19 am
    32   18   44 1
    33   19   20 2
    34   19   21 am
    35   21   22 1
    36   21   45 1
    37   22   27 ar
    38   22   23 ar
    39   23   24 ar
    40   23   46 1
    41   24   25 ar
    42   24   47 1
    43   25   26 ar
    44   25   32 1
    45   26   27 ar
    46   26   28 1
    47   27   48 1
    48   28   29 1
    49   28   30 1
    50   28   31 1
@<TRIPOS>MOLECULE
CHEMBL472620
   50    52     0     0     0
SMALL
USER_CHARGES

@<TRIPOS>ATOM
      1 C1          0.8203    4.9619   -2.0584 C.3       1 <0>        -0.1372
      2 C2          0.3084    3.7257   -1.3164 C.3       1 <0>         0.0127
      3 C3          0.8446    3.7325    0.1165 C.3       1 <0>        -0.1381
      4 C4         -1.2212    3.7446   -1.2887 C.3       1 <0>        -0.1370
      5 C5          0.7826    2.4827   -2.0243 C.2       1 <0>         0.1023
      6 C6          2.0804    1.9652   -1.9883 C.2       1 <0>        -0.2655
      7 C7          2.1014    0.8391   -2.7525 C.2       1 <0>         0.3152
      8 N1          0.8563    0.6598   -3.2495 N.pl3     1 <0>        -0.3918
      9 N2          0.0485    1.7003   -2.7733 N.2       1 <0>        -0.2809
     10 C8          0.4271   -0.4327   -4.1261 C.3       1 <0>         0.0993
     11 N3          3.2063    0.0192   -2.9819 N.am      1 <0>        -0.6558
     12 C9          4.3948    0.3173   -2.4205 C.2       1 <0>         0.7149
     13 O1          4.5039    1.3010   -1.7141 O.2       1 <0>        -0.5355
     14 N4          5.4624   -0.4750   -2.6421 N.am      1 <0>        -0.6784
     15 C10         6.7232   -0.1034   -2.1569 C.ar      1 <0>         0.1654
     16 C11         7.8634   -0.3882   -2.8964 C.ar      1 <0>        -0.1273
     17 C12         9.1058   -0.0218   -2.4177 C.ar      1 <0>        -0.0978
     18 C13         9.2149    0.6303   -1.1980 C.ar      1 <0>         0.0636
     19 C14         8.0759    0.9147   -0.4585 C.ar      1 <0>        -0.1082
     20 C15         6.8325    0.5547   -0.9392 C.ar      1 <0>        -0.1020
     21 O2         10.4384    0.9904   -0.7269 O.3       1 <0>        -0.2494
     22 C16        10.9827    0.2450    0.2681 C.ar      1 <0>         0.1634
     23 C17        12.1805    0.6231    0.8704 C.ar      1 <0>        -0.2004
     24 C18        12.7010   -0.1613    1.8790 C.ar      1 <0>         0.1337
     25 N5         12.0791   -1.2565    2.2732 N.ar      1 <0>        -0.5059
     26 C19        10.9431   -1.6474    1.7274 C.ar      1 <0>         0.1349
     27 C20        10.3549   -0.9146    0.7172 C.ar      1 <0>        -0.2484
     28 H1          1.9101    4.9485   -2.0781 H         1 <0>         0.0605
     29 H2          0.4383    4.9571   -3.0793 H         1 <0>         0.0556
     30 H3          0.4773    5.8609   -1.5464 H         1 <0>         0.0643
     31 H4          0.5015    4.6315    0.6286 H         1 <0>         0.0633
     32 H5          0.4798    2.8517    0.6451 H         1 <0>         0.0561
     33 H6          1.9343    3.7190    0.0968 H         1 <0>         0.0626
     34 H7         -1.6032    3.7397   -2.3096 H         1 <0>         0.0604
     35 H8         -1.5860    2.8638   -0.7601 H         1 <0>         0.0560
     36 H9         -1.5643    4.6436   -0.7767 H         1 <0>         0.0591
     37 H10         2.9177    2.3844   -1.4501 H         1 <0>         0.1742
     38 H11         0.0732   -1.2669   -3.5203 H         1 <0>         0.0752
     39 H12        -0.3791   -0.0849   -4.7720 H         1 <0>         0.0956
     40 H13         1.2679   -0.7591   -4.7381 H         1 <0>         0.0781
     41 H14         3.1193   -0.7655   -3.5454 H         1 <0>         0.4080
     42 H15         5.3578   -1.3023   -3.1375 H         1 <0>         0.4114
     43 H16         7.7787   -0.8964   -3.8455 H         1 <0>         0.1373
     44 H17         9.9927   -0.2432   -2.9928 H         1 <0>         0.1390
     45 H18         8.1615    1.4216    0.4913 H         1 <0>         0.1362
     46 H19         5.9456    0.7807   -0.3659 H         1 <0>         0.1520
     47 H20        12.6948    1.5178    0.5520 H         1 <0>         0.1449
     48 H21        13.6292    0.1243    2.3515 H         1 <0>         0.1654
     49 H22        10.4657   -2.5504    2.0785 H         1 <0>         0.1593
     50 H23         9.4229   -1.2378    0.2776 H         1 <0>         0.1394
@<TRIPOS>BOND
     1    1    2 1
     2    1   28 1
     3    1   29 1
     4    1   30 1
     5    2    3 1
     6    2    4 1
     7    2    5 1
     8    3   31 1
     9    3   32 1
    10    3   33 1
    11    4   34 1
    12    4   35 1
    13    4   36 1
    14    5    9 2
    15    5    6 1
    16    6    7 2
    17    6   37 1
    18    7    8 1
    19    7   11 1
    20    8    9 1
    21    8   10 1
    22   10   38 1
    23   10   39 1
    24   10   40 1
    25   11   12 am
    26   11   41 1
    27   12   13 2
    28   12   14 am
    29   14   15 1
    30   14   42 1
    31   15   20 ar
    32   15   16 ar
    33   16   17 ar
    34   16   43 1
    35   17   18 ar
    36   17   44 1
    37   18   19 ar
    38   18   21 1
    39   19   20 ar
    40   19   45 1
    41   20   46 1
    42   21   22 1
    43   22   27 ar
    44   22   23 ar
    45   23   24 ar
    46   23   47 1
    47   24   25 ar
    48   24   48 1
    49   25   26 ar
    50   26   27 ar
    51   26   49 1
    52   27   50 1
@<TRIPOS>MOLECULE
CHEMBL472620__1
   51    53     0     0     0
SMALL
USER_CHARGES

@<TRIPOS>ATOM
      1 C1          0.8203    4.9619   -2.0584 C.3       1 <0>        -0.1375
      2 C2          0.3084    3.7257   -1.3164 C.3       1 <0>         0.0120
      3 C3          0.8446    3.7325    0.1165 C.3       1 <0>        -0.1373
      4 C4         -1.2213    3.7446   -1.2887 C.3       1 <0>        -0.1386
      5 C5          0.7826    2.4827   -2.0243 C.2       1 <0>         0.1025
      6 C6          2.0804    1.9652   -1.9883 C.2       1 <0>        -0.2628
      7 C7          2.1014    0.8391   -2.7525 C.2       1 <0>         0.3087
      8 N1          0.8563    0.6598   -3.2495 N.pl3     1 <0>        -0.3892
      9 N2          0.0485    1.7003   -2.7733 N.2       1 <0>        -0.2746
     10 C8          0.4271   -0.4327   -4.1261 C.3       1 <0>         0.0976
     11 N3          3.2063    0.0192   -2.9819 N.am      1 <0>        -0.6517
     12 C9          4.3948    0.3173   -2.4205 C.2       1 <0>         0.7164
     13 O1          4.5039    1.3010   -1.7141 O.2       1 <0>        -0.5346
     14 N4          5.4624   -0.4750   -2.6421 N.am      1 <0>        -0.6817
     15 C10         6.7232   -0.1034   -2.1569 C.ar      1 <0>         0.1941
     16 C11         7.8634   -0.3882   -2.8964 C.ar      1 <0>        -0.1285
     17 C12         9.1058   -0.0218   -2.4177 C.ar      1 <0>        -0.0803
     18 C13         9.2149    0.6303   -1.1980 C.ar      1 <0>         0.0146
     19 C14         8.0759    0.9147   -0.4585 C.ar      1 <0>        -0.0981
     20 C15         6.8325    0.5547   -0.9392 C.ar      1 <0>        -0.1043
     21 O2         10.4384    0.9904   -0.7269 O.3       1 <0>        -0.2082
     22 C16        10.9827    0.2450    0.2681 C.ar      1 <0>         0.2466
     23 C17        12.1805    0.6231    0.8704 C.ar      1 <0>        -0.1592
     24 C18        12.7010   -0.1613    1.8790 C.ar      1 <0>         0.1644
     25 N5         12.0791   -1.2565    2.2732 N.ar      1 <0>        -0.4721
     26 C19        10.9431   -1.6474    1.7274 C.ar      1 <0>         0.1687
     27 C20        10.3549   -0.9146    0.7172 C.ar      1 <0>        -0.2127
     28 H1          1.9101    4.9485   -2.0781 H         1 <0>         0.0592
     29 H2          0.4383    4.9571   -3.0793 H         1 <0>         0.0567
     30 H3          0.4773    5.8609   -1.5464 H         1 <0>         0.0657
     31 H4          0.5015    4.6315    0.6286 H         1 <0>         0.0646
     32 H5          0.4798    2.8517    0.6451 H         1 <0>         0.0560
     33 H6          1.9343    3.7190    0.0968 H         1 <0>         0.0606
     34 H7         -1.6032    3.7397   -2.3096 H         1 <0>         0.0615
     35 H8         -1.5860    2.8638   -0.7601 H         1 <0>         0.0565
     36 H9         -1.5643    4.6436   -0.7767 H         1 <0>         0.0607
     37 H10         2.9177    2.3844   -1.4501 H         1 <0>         0.1732
     38 H11         0.0732   -1.2669   -3.5203 H         1 <0>         0.0768
     39 H12        -0.3791   -0.0849   -4.7720 H         1 <0>         0.0980
     40 H13         1.2679   -0.7591   -4.7381 H         1 <0>         0.0784
     41 H14         3.1193   -0.7655   -3.5454 H         1 <0>         0.4099
     42 H15         5.3578   -1.3023   -3.1375 H         1 <0>         0.4156
     43 H16         7.7787   -0.8964   -3.8455 H         1 <0>         0.1462
     44 H17         9.9927   -0.2432   -2.9928 H         1 <0>         0.1452
     45 H18         8.1615    1.4216    0.4913 H         1 <0>         0.1408
     46 H19         5.9456    0.7807   -0.3659 H         1 <0>         0.1600
     47 H20        12.6948    1.5178    0.5520 H         1 <0>         0.1931
     48 H21        13.6292    0.1243    2.3515 H         1 <0>         0.2168
     49 H22        10.4657   -2.5504    2.0785 H         1 <0>         0.2117
     50 H23         9.4229   -1.2378    0.2776 H         1 <0>         0.1854
     51 H24        12.4683   -1.7893    2.9842 H         1 <0>         0.4531
@<TRIPOS>BOND
     1    1    2 1
     2    1   28 1
     3    1   29 1
     4    1   30 1
     5    2    3 1
     6    2    4 1
     7    2    5 1
     8    3   31 1
     9    3   32 1
    10    3   33 1
    11    4   34 1
    12    4   35 1
    13    4   36 1
    14    5    9 2
    15    5    6 1
    16    6    7 2
    17    6   37 1
    18    7    8 1
    19    7   11 1
    20    8    9 1
    21    8   10 1
    22   10   38 1
    23   10   39 1
    24   10   40 1
    25   11   12 am
    26   11   41 1
    27   12   13 2
    28   12   14 am
    29   14   15 1
    30   14   42 1
    31   15   20 ar
    32   15   16 ar
    33   16   17 ar
    34   16   43 1
    35   17   18 ar
    36   17   44 1
    37   18   19 ar
    38   18   21 1
    39   19   20 ar
    40   19   45 1
    41   20   46 1
    42   21   22 1
    43   22   27 ar
    44   22   23 ar
    45   23   24 ar
    46   23   47 1
    47   24   25 ar
    48   24   48 1
    49   25   26 ar
    50   25   51 1
    51   26   27 ar
    52   26   49 1
    53   27   50 1
@<TRIPOS>MOLECULE
CHEMBL570573
   61    66     0     0     0
SMALL
USER_CHARGES

@<TRIPOS>ATOM
      1 C1         -2.0636    0.3288    0.7602 C.3       1 <0>        -0.1131
      2 C2         -0.8610   -0.3581    0.1661 C.ar      1 <0>        -0.0387
      3 C3         -0.9107   -0.8200   -1.1454 C.ar      1 <0>        -0.1145
      4 C4          0.1590   -1.4460   -1.7132 C.ar      1 <0>        -0.0833
      5 C5          1.3331   -1.6313   -0.9710 C.ar      1 <0>        -0.1314
      6 C6          1.3960   -1.1649    0.3652 C.ar      1 <0>         0.0169
      7 C7          0.2792   -0.5169    0.9270 C.ar      1 <0>         0.1434
      8 N1          0.3232   -0.0453    2.2394 N.pl3     1 <0>        -0.6505
      9 C8          0.4622    1.3128    2.4840 C.ar      1 <0>         0.4463
     10 C9          0.6775    1.7668    3.7938 C.ar      1 <0>        -0.1840
     11 C10         0.8150    3.1377    4.0171 C.ar      1 <0>        -0.0026
     12 C11         0.7325    3.9937    2.9307 C.ar      1 <0>        -0.2381
     13 C12         0.5185    3.4721    1.6688 C.ar      1 <0>         0.1723
     14 N2          0.3963    2.1722    1.4795 N.ar      1 <0>        -0.5356
     15 C13         0.7570    0.8081    4.9203 C.ar      1 <0>         0.2708
     16 C14         1.1276    1.2402    6.1927 C.ar      1 <0>        -0.2894
     17 C15         1.1868    0.2977    7.2171 C.ar      1 <0>         0.4457
     18 N3          0.8898   -0.9710    6.9456 N.ar      1 <0>        -0.5833
     19 C16         0.5435   -1.3404    5.7290 C.ar      1 <0>         0.3572
     20 N4          0.4696   -0.4815    4.7340 N.ar      1 <0>        -0.5813
     21 N5          1.5503    0.6757    8.5001 N.pl3     1 <0>        -0.7140
     22 C17         1.8757    2.0750    8.7870 C.3       1 <0>         0.0888
     23 C18         2.5875   -1.3640    1.0867 C.ar      1 <0>        -0.2005
     24 C19         3.6283   -1.9940    0.4759 C.ar      1 <0>         0.1270
     25 N6          3.5511   -2.4240   -0.7765 N.ar      1 <0>        -0.5428
     26 C20         2.4680   -2.2733   -1.5149 C.ar      1 <0>         0.4271
     27 N7          2.4437   -2.7432   -2.8181 N.pl3     1 <0>        -0.6523
     28 C21         3.5294   -3.4698   -3.3205 C.ar      1 <0>         0.1827
     29 C22         4.2578   -4.2921   -2.4619 C.ar      1 <0>        -0.0894
     30 C23         5.3294   -5.0100   -2.9552 C.ar      1 <0>        -0.0449
     31 C24         5.6627   -4.9039   -4.2840 C.ar      1 <0>        -0.1825
     32 C25         4.9475   -4.0809   -5.1828 C.ar      1 <0>         0.1051
     33 C26         3.8543   -3.3629   -4.6548 C.ar      1 <0>        -0.1051
     34 N8          5.4315   -4.1149   -6.4417 N.2       1 <0>        -0.5187
     35 C27         6.4586   -4.8434   -6.7700 C.2       1 <0>         0.1047
     36 S1          6.9075   -5.6034   -5.3370 S.3       1 <0>         0.0786
     37 C28         7.1005   -4.9770   -8.1269 C.3       1 <0>        -0.0716
     38 H1         -1.9576    1.4079    0.6487 H         1 <0>         0.0788
     39 H2         -2.9639   -0.0032    0.2432 H         1 <0>         0.0661
     40 H3         -2.1391    0.0785    1.8184 H         1 <0>         0.0653
     41 H4         -1.8123   -0.6807   -1.7233 H         1 <0>         0.1300
     42 H5          0.1015   -1.7985   -2.7325 H         1 <0>         0.1252
     43 H6          0.2565   -0.6673    2.9807 H         1 <0>         0.4345
     44 H7          0.9813    3.5220    5.0126 H         1 <0>         0.1365
     45 H8          0.8342    5.0600    3.0689 H         1 <0>         0.1379
     46 H9          0.4539    4.1399    0.8225 H         1 <0>         0.1590
     47 H10         1.3628    2.2776    6.3794 H         1 <0>         0.1432
     48 H11         0.3092   -2.3783    5.5435 H         1 <0>         0.1991
     49 H12         1.5893    0.0137    9.2080 H         1 <0>         0.4115
     50 H13         2.7204    2.3852    8.1719 H         1 <0>         0.0614
     51 H14         1.0129    2.7021    8.5622 H         1 <0>         0.0612
     52 H15         2.1358    2.1790    9.8404 H         1 <0>         0.0856
     53 H16         2.6749   -1.0226    2.1076 H         1 <0>         0.1300
     54 H17         4.5441   -2.1478    1.0272 H         1 <0>         0.1532
     55 H18         1.6742   -2.5687   -3.3823 H         1 <0>         0.4196
     56 H19         3.9862   -4.3668   -1.4193 H         1 <0>         0.1534
     57 H20         5.9021   -5.6503   -2.3007 H         1 <0>         0.1370
     58 H21         3.2711   -2.7222   -5.2996 H         1 <0>         0.1339
     59 H22         7.8817   -4.2246   -8.2349 H         1 <0>         0.0940
     60 H23         7.5369   -5.9708   -8.2261 H         1 <0>         0.0899
     61 H24         6.3470   -4.8321   -8.9011 H         1 <0>         0.0948
@<TRIPOS>BOND
     1    1    2 1
     2    1   38 1
     3    1   39 1
     4    1   40 1
     5    2    7 ar
     6    2    3 ar
     7    3    4 ar
     8    3   41 1
     9    4    5 ar
    10    4   42 1
    11    5   26 ar
    12    5    6 ar
    13    6    7 ar
    14    6   23 ar
    15    7    8 1
    16    8    9 1
    17    8   43 1
    18    9   14 ar
    19    9   10 ar
    20   10   11 ar
    21   10   15 1
    22   11   12 ar
    23   11   44 1
    24   12   13 ar
    25   12   45 1
    26   13   14 ar
    27   13   46 1
    28   15   20 ar
    29   15   16 ar
    30   16   17 ar
    31   16   47 1
    32   17   18 ar
    33   17   21 1
    34   18   19 ar
    35   19   20 ar
    36   19   48 1
    37   21   22 1
    38   21   49 1
    39   22   50 1
    40   22   51 1
    41   22   52 1
    42   23   24 ar
    43   23   53 1
    44   24   25 ar
    45   24   54 1
    46   25   26 ar
    47   26   27 1
    48   27   28 1
    49   27   55 1
    50   28   33 ar
    51   28   29 ar
    52   29   30 ar
    53   29   56 1
    54   30   31 ar
    55   30   57 1
    56   31   36 1
    57   31   32 ar
    58   32   33 ar
    59   32   34 1
    60   33   58 1
    61   34   35 2
    62   35   36 1
    63   35   37 1
    64   37   59 1
    65   37   60 1
    66   37   61 1
@<TRIPOS>MOLECULE
CHEMBL570573__1
   62    67     0     0     0
SMALL
USER_CHARGES

@<TRIPOS>ATOM
      1 C1         -2.1610   -0.6351    0.8818 C.3       1 <0>        -0.1281
      2 C2         -0.9426   -1.3728    0.3895 C.ar      1 <0>         0.0022
      3 C3         -0.7937   -1.6243   -0.9707 C.ar      1 <0>        -0.0866
      4 C4          0.2958   -2.2894   -1.4494 C.ar      1 <0>        -0.0698
      5 C5          1.2881   -2.7305   -0.5636 C.ar      1 <0>        -0.1227
      6 C6          1.1479   -2.4800    0.8236 C.ar      1 <0>         0.0253
      7 C7          0.0156   -1.7864    1.2923 C.ar      1 <0>         0.1637
      8 N1         -0.1382   -1.5249    2.6541 N.pl3     1 <0>        -0.6632
      9 C8          0.0909   -0.2482    3.1453 C.ar      1 <0>         0.4338
     10 C9          0.0709   -0.0196    4.5293 C.ar      1 <0>        -0.1685
     11 C10         0.3045    1.2728    5.0018 C.ar      1 <0>        -0.0032
     12 C11         0.5470    2.2777    4.0791 C.ar      1 <0>        -0.2222
     13 C12         0.5509    1.9759    2.7304 C.ar      1 <0>         0.1687
     14 N2          0.3326    0.7460    2.3057 N.ar      1 <0>        -0.5402
     15 C13        -0.1941   -1.1305    5.4728 C.ar      1 <0>         0.2634
     16 C14        -0.0540   -0.9409    6.8467 C.ar      1 <0>        -0.2853
     17 C15        -0.3154   -2.0184    7.6904 C.ar      1 <0>         0.4494
     18 N3         -0.6865   -3.1805    7.1580 N.ar      1 <0>        -0.5792
     19 C16        -0.8077   -3.3201    5.8533 C.ar      1 <0>         0.3576
     20 N4         -0.5759   -2.3266    5.0212 N.ar      1 <0>        -0.5890
     21 N5         -0.1904   -1.8823    9.0641 N.pl3     1 <0>        -0.7093
     22 C17         0.2191   -0.5984    9.6387 C.3       1 <0>         0.0859
     23 C18         2.1596   -2.9338    1.6899 C.ar      1 <0>        -0.1115
     24 C19         3.2285   -3.5927    1.1640 C.ar      1 <0>         0.0767
     25 N6          3.3428   -3.8183   -0.1381 N.ar      1 <0>        -0.5127
     26 C20         2.4354   -3.4232   -1.0109 C.ar      1 <0>         0.5001
     27 N7          2.6068   -3.6870   -2.3602 N.pl3     1 <0>        -0.6257
     28 C21         3.6801   -4.4770   -2.7881 C.ar      1 <0>         0.1096
     29 C22         4.0063   -5.6306   -2.0763 C.ar      1 <0>        -0.1663
     30 C23         5.0649   -6.4117   -2.4964 C.ar      1 <0>        -0.0065
     31 C24         5.7812   -6.0414   -3.6090 C.ar      1 <0>        -0.1892
     32 C25         5.4793   -4.8796   -4.3544 C.ar      1 <0>         0.1268
     33 C26         4.3902   -4.1026   -3.9074 C.ar      1 <0>        -0.0606
     34 N8          6.2987   -4.6919   -5.4097 N.2       1 <0>        -0.5258
     35 C27         7.2656   -5.5158   -5.6916 C.2       1 <0>         0.1317
     36 S1          7.1689   -6.6983   -4.4980 S.3       1 <0>         0.1387
     37 C28         8.2491   -5.4309   -6.8303 C.3       1 <0>        -0.0823
     38 H1         -1.9426    0.4314    0.9364 H         1 <0>         0.0929
     39 H2         -2.9894   -0.8015    0.1932 H         1 <0>         0.0798
     40 H3         -2.4323   -1.0015    1.8719 H         1 <0>         0.0782
     41 H4         -1.5545   -1.2873   -1.6592 H         1 <0>         0.1520
     42 H5          0.3938   -2.4761   -2.5086 H         1 <0>         0.1426
     43 H6         -0.4054   -2.2359    3.2574 H         1 <0>         0.4391
     44 H7          0.2960    1.4845    6.0608 H         1 <0>         0.1416
     45 H8          0.7311    3.2887    4.4112 H         1 <0>         0.1434
     46 H9          0.7396    2.7597    2.0118 H         1 <0>         0.1633
     47 H10         0.2493    0.0154    7.2464 H         1 <0>         0.1453
     48 H11        -1.1104   -4.2772    5.4548 H         1 <0>         0.1997
     49 H12        -0.3742   -2.6371    9.6449 H         1 <0>         0.4141
     50 H13         0.2618   -0.6834   10.7245 H         1 <0>         0.0892
     51 H14         1.2031   -0.3267    9.2566 H         1 <0>         0.0630
     52 H15        -0.5028    0.1701    9.3625 H         1 <0>         0.0635
     53 H16         2.0895   -2.7620    2.7538 H         1 <0>         0.1713
     54 H17         4.0066   -3.9418    1.8265 H         1 <0>         0.1988
     55 H18         1.9830   -3.3241   -3.0084 H         1 <0>         0.4445
     56 H19         3.4359   -5.9109   -1.2031 H         1 <0>         0.1430
     57 H20         5.3282   -7.3076   -1.9538 H         1 <0>         0.1535
     58 H21         4.1142   -3.2066   -4.4434 H         1 <0>         0.1502
     59 H22         9.1244   -4.8641   -6.5128 H         1 <0>         0.1042
     60 H23         8.5535   -6.4357   -7.1232 H         1 <0>         0.0986
     61 H24         7.7808   -4.9314   -7.6784 H         1 <0>         0.1036
     62 H25         4.1246   -4.2926   -0.4616 H         1 <0>         0.4390
@<TRIPOS>BOND
     1    1    2 1
     2    1   38 1
     3    1   39 1
     4    1   40 1
     5    2    7 ar
     6    2    3 ar
     7    3    4 ar
     8    3   41 1
     9    4    5 ar
    10    4   42 1
    11    5   26 ar
    12    5    6 ar
    13    6    7 ar
    14    6   23 ar
    15    7    8 1
    16    8    9 1
    17    8   43 1
    18    9   14 ar
    19    9   10 ar
    20   10   11 ar
    21   10   15 1
    22   11   12 ar
    23   11   44 1
    24   12   13 ar
    25   12   45 1
    26   13   14 ar
    27   13   46 1
    28   15   20 ar
    29   15   16 ar
    30   16   17 ar
    31   16   47 1
    32   17   18 ar
    33   17   21 1
    34   18   19 ar
    35   19   20 ar
    36   19   48 1
    37   21   22 1
    38   21   49 1
    39   22   50 1
    40   22   51 1
    41   22   52 1
    42   23   24 ar
    43   23   53 1
    44   24   25 ar
    45   24   54 1
    46   25   26 ar
    47   25   62 1
    48   26   27 1
    49   27   28 1
    50   27   55 1
    51   28   33 ar
    52   28   29 ar
    53   29   30 ar
    54   29   56 1
    55   30   31 ar
    56   30   57 1
    57   31   36 1
    58   31   32 ar
    59   32   33 ar
    60   32   34 1
    61   33   58 1
    62   34   35 2
    63   35   36 1
    64   35   37 1
    65   37   59 1
    66   37   60 1
    67   37   61 1
@<TRIPOS>MOLECULE
CHEMBL576787
   51    55     0     0     0
SMALL
USER_CHARGES

@<TRIPOS>ATOM
      1 C1         -0.8967    1.4192    0.0677 C.3       1 <0>        -0.1275
      2 C2         -0.6358   -0.0648    0.0438 C.ar      1 <0>        -0.0369
      3 C3         -0.6640   -0.7487   -1.1656 C.ar      1 <0>        -0.1239
      4 C4         -0.4324   -2.0916   -1.2235 C.ar      1 <0>        -0.0762
      5 C5         -0.1594   -2.8057   -0.0493 C.ar      1 <0>        -0.1396
      6 C6         -0.1264   -2.1241    1.1921 C.ar      1 <0>         0.0308
      7 C7         -0.3645   -0.7326    1.2272 C.ar      1 <0>        -0.0535
      8 C8         -0.3297    0.0023    2.5124 C.ar      1 <0>        -0.0658
      9 C9          0.8777    0.1067    3.2232 C.ar      1 <0>        -0.0507
     10 C10         0.9373    0.7749    4.4050 C.ar      1 <0>        -0.1184
     11 C11        -0.2191    1.3731    4.9307 C.ar      1 <0>         0.2166
     12 C12        -1.4442    1.2742    4.2206 C.ar      1 <0>        -0.2135
     13 C13        -1.4864    0.5862    3.0016 C.ar      1 <0>        -0.0389
     14 C14        -2.5880    1.8840    4.7710 C.ar      1 <0>         0.2429
     15 N1         -2.4706    2.5183    5.9186 N.ar      1 <0>        -0.5581
     16 C15        -1.3048    2.5914    6.5579 C.ar      1 <0>         0.5686
     17 N2         -0.2012    2.0401    6.0911 N.ar      1 <0>        -0.5736
     18 N3         -1.2488    3.2733    7.7600 N.pl3     1 <0>        -0.7007
     19 C16        -2.4570    3.8972    8.3052 C.3       1 <0>         0.1038
     20 C17         0.1503   -2.8651    2.3536 C.ar      1 <0>        -0.2090
     21 C18         0.3750   -4.2039    2.2421 C.ar      1 <0>         0.1329
     22 N4          0.3401   -4.8260    1.0717 N.ar      1 <0>        -0.5425
     23 C19         0.0871   -4.1971   -0.0608 C.ar      1 <0>         0.4269
     24 N5          0.0627   -4.8979   -1.2551 N.pl3     1 <0>        -0.6538
     25 C20         0.1877   -6.2904   -1.2512 C.ar      1 <0>         0.1675
     26 C21        -0.3925   -7.0382   -0.2346 C.ar      1 <0>        -0.0995
     27 C22        -0.2674   -8.4136   -0.2332 C.ar      1 <0>        -0.0897
     28 C23         0.4352   -9.0468   -1.2435 C.ar      1 <0>        -0.0533
     29 C24         1.0142   -8.3042   -2.2576 C.ar      1 <0>        -0.0891
     30 C25         0.8875   -6.9290   -2.2671 C.ar      1 <0>        -0.1390
     31 Cl1         0.5909  -10.7757   -1.2383 Cl        1 <0>        -0.0717
     32 H1          0.0441    1.9556   -0.0558 H         1 <0>         0.0770
     33 H2         -1.5742    1.6822   -0.7446 H         1 <0>         0.0720
     34 H3         -1.3487    1.6933    1.0210 H         1 <0>         0.0748
     35 H4         -0.8735   -0.2070   -2.0761 H         1 <0>         0.1306
     36 H5         -0.4597   -2.6042   -2.1737 H         1 <0>         0.1251
     37 H6          1.7712   -0.3510    2.8248 H         1 <0>         0.1324
     38 H7          1.8731    0.8455    4.9395 H         1 <0>         0.1393
     39 H8         -2.4121    0.5084    2.4507 H         1 <0>         0.1355
     40 H9         -3.5397    1.8328    4.2630 H         1 <0>         0.1779
     41 H10        -0.4096    3.3385    8.2420 H         1 <0>         0.4167
     42 H11        -2.8336    4.6377    7.5996 H         1 <0>         0.0603
     43 H12        -3.2171    3.1336    8.4708 H         1 <0>         0.0603
     44 H13        -2.2193    4.3843    9.2509 H         1 <0>         0.0774
     45 H14         0.1845   -2.3811    3.3185 H         1 <0>         0.1360
     46 H15         0.5882   -4.7756    3.1333 H         1 <0>         0.1554
     47 H16        -0.0410   -4.4226   -2.0943 H         1 <0>         0.4189
     48 H17        -0.9406   -6.5446    0.5543 H         1 <0>         0.1410
     49 H18        -0.7180   -8.9955    0.5572 H         1 <0>         0.1354
     50 H19         1.5623   -8.8009   -3.0445 H         1 <0>         0.1362
     51 H20         1.3355   -6.3504   -3.0613 H         1 <0>         0.1329
@<TRIPOS>BOND
     1    1    2 1
     2    1   32 1
     3    1   33 1
     4    1   34 1
     5    2    7 ar
     6    2    3 ar
     7    3    4 ar
     8    3   35 1
     9    4    5 ar
    10    4   36 1
    11    5   23 ar
    12    5    6 ar
    13    6    7 ar
    14    6   20 ar
    15    7    8 1
    16    8   13 ar
    17    8    9 ar
    18    9   10 ar
    19    9   37 1
    20   10   11 ar
    21   10   38 1
    22   11   17 ar
    23   11   12 ar
    24   12   13 ar
    25   12   14 ar
    26   13   39 1
    27   14   15 ar
    28   14   40 1
    29   15   16 ar
    30   16   17 ar
    31   16   18 1
    32   18   19 1
    33   18   41 1
    34   19   42 1
    35   19   43 1
    36   19   44 1
    37   20   21 ar
    38   20   45 1
    39   21   22 ar
    40   21   46 1
    41   22   23 ar
    42   23   24 1
    43   24   25 1
    44   24   47 1
    45   25   30 ar
    46   25   26 ar
    47   26   27 ar
    48   26   48 1
    49   27   28 ar
    50   27   49 1
    51   28   29 ar
    52   28   31 1
    53   29   30 ar
    54   29   50 1
    55   30   51 1
@<TRIPOS>MOLECULE
CHEMBL576787__1
   52    56     0     0     0
SMALL
USER_CHARGES

@<TRIPOS>ATOM
      1 C1         -1.4802    1.3608   -0.2426 C.3       1 <0>        -0.1415
      2 C2         -1.2052   -0.1205   -0.2053 C.ar      1 <0>         0.0044
      3 C3         -0.7130   -0.7574   -1.3380 C.ar      1 <0>        -0.0938
      4 C4         -0.4531   -2.0965   -1.3389 C.ar      1 <0>        -0.0656
      5 C5         -0.6820   -2.8543   -0.1829 C.ar      1 <0>        -0.1289
      6 C6         -1.1831   -2.2209    0.9808 C.ar      1 <0>         0.0406
      7 C7         -1.4404   -0.8325    0.9600 C.ar      1 <0>        -0.0306
      8 C8         -1.9592   -0.1474    2.1660 C.ar      1 <0>        -0.1047
      9 C9         -1.1611   -0.0667    3.3195 C.ar      1 <0>        -0.0583
     10 C10        -1.6131    0.5558    4.4398 C.ar      1 <0>        -0.1109
     11 C11        -2.8944    1.1298    4.4538 C.ar      1 <0>         0.2268
     12 C12        -3.7090    1.0545    3.2937 C.ar      1 <0>        -0.2225
     13 C13        -3.2254    0.4138    2.1463 C.ar      1 <0>        -0.0200
     14 C14        -4.9893    1.6392    3.3358 C.ar      1 <0>         0.2487
     15 N1         -5.3738    2.2293    4.4481 N.ar      1 <0>        -0.5530
     16 C15        -4.5832    2.2813    5.5182 C.ar      1 <0>         0.5784
     17 N2         -3.3753    1.7518    5.5371 N.ar      1 <0>        -0.5757
     18 N3         -5.0470    2.9167    6.6558 N.pl3     1 <0>        -0.6926
     19 C16        -6.3841    3.5155    6.6668 C.3       1 <0>         0.0991
     20 C17        -1.4029   -3.0051    2.1260 C.ar      1 <0>        -0.1172
     21 C18        -1.1270   -4.3379    2.0736 C.ar      1 <0>         0.0811
     22 N4         -0.6582   -4.9146    0.9756 N.ar      1 <0>        -0.5130
     23 C19        -0.4271   -4.2434   -0.1371 C.ar      1 <0>         0.4965
     24 N5          0.0627   -4.8979   -1.2551 N.pl3     1 <0>        -0.6252
     25 C20         0.1877   -6.2904   -1.2512 C.ar      1 <0>         0.0949
     26 C21        -0.8117   -7.0771   -0.6929 C.ar      1 <0>        -0.1554
     27 C22        -0.6856   -8.4524   -0.6904 C.ar      1 <0>        -0.0732
     28 C23         0.4351   -9.0468   -1.2434 C.ar      1 <0>        -0.0286
     29 C24         1.4323   -8.2654   -1.8004 C.ar      1 <0>        -0.0735
     30 C25         1.3088   -6.8899   -1.8108 C.ar      1 <0>        -0.0991
     31 Cl1         0.5906  -10.7758   -1.2380 Cl        1 <0>        -0.0325
     32 H1         -0.5840    1.9043    0.0565 H         1 <0>         0.0934
     33 H2         -1.7614    1.6527   -1.2545 H         1 <0>         0.0850
     34 H3         -2.2940    1.5966    0.4430 H         1 <0>         0.0856
     35 H4         -0.5333   -0.1818   -2.2340 H         1 <0>         0.1529
     36 H5         -0.0715   -2.5722   -2.2302 H         1 <0>         0.1424
     37 H6         -0.1745   -0.5060    3.3159 H         1 <0>         0.1325
     38 H7         -0.9875    0.6086    5.3185 H         1 <0>         0.1434
     39 H8         -3.8348    0.3544    1.2566 H         1 <0>         0.1380
     40 H9         -5.6408    1.6047    2.4751 H         1 <0>         0.1807
     41 H10        -4.4871    2.9659    7.4463 H         1 <0>         0.4196
     42 H11        -6.4455    4.2814    5.8937 H         1 <0>         0.0640
     43 H12        -7.1293    2.7438    6.4737 H         1 <0>         0.0636
     44 H13        -6.5722    3.9666    7.6410 H         1 <0>         0.0821
     45 H14        -1.7838   -2.5584    3.0325 H         1 <0>         0.1779
     46 H15        -1.2947   -4.9427    2.9525 H         1 <0>         0.2015
     47 H16         0.3191   -4.3901   -2.0408 H         1 <0>         0.4449
     48 H17        -1.6863   -6.6138   -0.2608 H         1 <0>         0.1383
     49 H18        -1.4621   -9.0645   -0.2561 H         1 <0>         0.1541
     50 H19         2.3060   -8.7319   -2.2310 H         1 <0>         0.1554
     51 H20         2.0851   -6.2809   -2.2498 H         1 <0>         0.1509
     52 H21        -0.4780   -5.8676    0.9907 H         1 <0>         0.4392
@<TRIPOS>BOND
     1    1    2 1
     2    1   32 1
     3    1   33 1
     4    1   34 1
     5    2    7 ar
     6    2    3 ar
     7    3    4 ar
     8    3   35 1
     9    4    5 ar
    10    4   36 1
    11    5   23 ar
    12    5    6 ar
    13    6    7 ar
    14    6   20 ar
    15    7    8 1
    16    8   13 ar
    17    8    9 ar
    18    9   10 ar
    19    9   37 1
    20   10   11 ar
    21   10   38 1
    22   11   17 ar
    23   11   12 ar
    24   12   13 ar
    25   12   14 ar
    26   13   39 1
    27   14   15 ar
    28   14   40 1
    29   15   16 ar
    30   16   17 ar
    31   16   18 1
    32   18   19 1
    33   18   41 1
    34   19   42 1
    35   19   43 1
    36   19   44 1
    37   20   21 ar
    38   20   45 1
    39   21   22 ar
    40   21   46 1
    41   22   23 ar
    42   22   52 1
    43   23   24 1
    44   24   25 1
    45   24   47 1
    46   25   30 ar
    47   25   26 ar
    48   26   27 ar
    49   26   48 1
    50   27   28 ar
    51   27   49 1
    52   28   29 ar
    53   28   31 1
    54   29   30 ar
    55   29   50 1
    56   30   51 1
@<TRIPOS>MOLECULE
CHEMBL370353
   38    41     0     0     0
SMALL
USER_CHARGES

@<TRIPOS>ATOM
      1 C1         -0.0167    1.3794    0.0096 C.ar      1 <0>        -0.1056
      2 C2          1.1684    2.0934    0.0021 C.ar      1 <0>        -0.1163
      3 C3          2.3774    1.4291   -0.0134 C.ar      1 <0>        -0.0742
      4 C4          2.4034    0.0337   -0.0211 C.ar      1 <0>        -0.0223
      5 C5          1.2043   -0.6806   -0.0130 C.ar      1 <0>        -0.1087
      6 C6          0.0021   -0.0041    0.0020 C.ar      1 <0>        -0.1153
      7 C7          3.6955   -0.6848   -0.0382 C.2       1 <0>         0.2695
      8 N1          3.8463   -2.0424   -0.0525 N.pl3     1 <0>        -0.5532
      9 H1          3.1338   -2.7006   -0.0529 H         1 <0>         0.4264
     10 C8          5.1947   -2.3015   -0.0661 C.2       1 <0>         0.0855
     11 C9          5.8304   -1.0696   -0.0596 C.2       1 <0>         0.0501
     12 N2          4.8801   -0.1196   -0.0478 N.2       1 <0>        -0.4466
     13 C10         7.2919   -0.8417   -0.0695 C.ar      1 <0>         0.2612
     14 C11         7.8226    0.3544   -0.5665 C.ar      1 <0>        -0.1975
     15 C12         9.1947    0.5173   -0.5533 C.ar      1 <0>         0.1526
     16 N3          9.9570   -0.4554   -0.0748 N.ar      1 <0>        -0.5225
     17 C13         9.4275   -1.5709    0.3866 C.ar      1 <0>         0.3003
     18 N4          8.1260   -1.7698    0.3998 N.ar      1 <0>        -0.5165
     19 C14         5.8398   -3.6292   -0.0837 C.ar      1 <0>        -0.0231
     20 C15         6.9178   -3.8961    0.7639 C.ar      1 <0>        -0.0460
     21 C16         7.5178   -5.1380    0.7451 C.ar      1 <0>        -0.1056
     22 C17         7.0556   -6.1217   -0.1117 C.ar      1 <0>        -0.0486
     23 C18         5.9843   -5.8651   -0.9586 C.ar      1 <0>         0.1062
     24 C19         5.3710   -4.6244   -0.9434 C.ar      1 <0>        -0.1188
     25 O1          5.5348   -6.8348   -1.7984 O.3       1 <0>        -0.4848
     26 Cl1         7.8173   -7.6815   -0.1289 Cl        1 <0>        -0.0535
     27 H2         -0.9605    1.9041    0.0260 H         1 <0>         0.1281
     28 H3          1.1469    3.1732    0.0081 H         1 <0>         0.1315
     29 H4          3.3017    1.9877   -0.0199 H         1 <0>         0.1385
     30 H5          1.2176   -1.7605   -0.0192 H         1 <0>         0.1180
     31 H6         -0.9265   -0.5556    0.0082 H         1 <0>         0.1294
     32 H7          7.1763    1.1297   -0.9508 H         1 <0>         0.1532
     33 H8          9.6406    1.4264   -0.9288 H         1 <0>         0.1718
     34 H9         10.0797   -2.3423    0.7687 H         1 <0>         0.1991
     35 H10         7.2814   -3.1305    1.4332 H         1 <0>         0.1693
     36 H11         8.3511   -5.3432    1.4008 H         1 <0>         0.1430
     37 H12         4.5352   -4.4253   -1.5977 H         1 <0>         0.1331
     38 H13         4.8449   -7.3957   -1.4181 H         1 <0>         0.3922
@<TRIPOS>BOND
     1    1    6 ar
     2    1    2 ar
     3    1   27 1
     4    2    3 ar
     5    2   28 1
     6    3    4 ar
     7    3   29 1
     8    4    5 ar
     9    4    7 1
    10    5    6 ar
    11    5   30 1
    12    6   31 1
    13    7   12 2
    14    7    8 1
    15    8    9 1
    16    8   10 1
    17   10   11 2
    18   10   19 1
    19   11   12 1
    20   11   13 1
    21   13   18 ar
    22   13   14 ar
    23   14   15 ar
    24   14   32 1
    25   15   16 ar
    26   15   33 1
    27   16   17 ar
    28   17   18 ar
    29   17   34 1
    30   19   24 ar
    31   19   20 ar
    32   20   21 ar
    33   20   35 1
    34   21   22 ar
    35   21   36 1
    36   22   23 ar
    37   22   26 1
    38   23   24 ar
    39   23   25 1
    40   24   37 1
    41   25   38 1
@<TRIPOS>MOLECULE
CHEMBL370353__1
   38    41     0     0     0
SMALL
USER_CHARGES

@<TRIPOS>ATOM
      1 C1         -0.0167    1.3794    0.0096 C.ar      1 <0>        -0.1030
      2 C2          1.1684    2.0934    0.0021 C.ar      1 <0>        -0.1166
      3 C3          2.3774    1.4292   -0.0129 C.ar      1 <0>        -0.0705
      4 C4          2.4034    0.0337   -0.0206 C.ar      1 <0>        -0.0276
      5 C5          1.2043   -0.6806   -0.0130 C.ar      1 <0>        -0.1069
      6 C6          0.0021   -0.0041    0.0020 C.ar      1 <0>        -0.1163
      7 C7          3.6955   -0.6848   -0.0372 C.2       1 <0>         0.2881
      8 N1          4.8815   -0.1185   -0.0455 N.2       1 <0>        -0.4603
      9 H1          3.1336   -2.6979   -0.0324 H         1 <0>         0.4253
     10 C8          5.8317   -1.0647   -0.0602 C.2       1 <0>         0.1169
     11 C9          5.1988   -2.2980   -0.0611 C.2       1 <0>         0.0140
     12 N2          3.8458   -2.0394   -0.0405 N.pl3     1 <0>        -0.5484
     13 C10         5.8448   -3.6221   -0.0749 C.ar      1 <0>         0.2496
     14 C11         5.1772   -4.7470    0.4300 C.ar      1 <0>        -0.2269
     15 C12         5.8277   -5.9649    0.3928 C.ar      1 <0>         0.1609
     16 N3          7.0508   -6.0303   -0.1143 N.ar      1 <0>        -0.5201
     17 C13         7.6535   -4.9550   -0.5818 C.ar      1 <0>         0.3078
     18 N4          7.0740   -3.7732   -0.5734 N.ar      1 <0>        -0.4967
     19 C14         7.2953   -0.8335   -0.0735 C.ar      1 <0>         0.0147
     20 C15         8.1477   -1.7081    0.6003 C.ar      1 <0>        -0.0622
     21 C16         9.5104   -1.4909    0.5860 C.ar      1 <0>        -0.1004
     22 C17        10.0348   -0.4066   -0.0950 C.ar      1 <0>        -0.0543
     23 C18         9.1925    0.4694   -0.7681 C.ar      1 <0>         0.1117
     24 C19         7.8245    0.2553   -0.7641 C.ar      1 <0>        -0.0997
     25 O1          9.7119    1.5336   -1.4355 O.3       1 <0>        -0.4853
     26 Cl1        11.7501   -0.1397   -0.1078 Cl        1 <0>        -0.0576
     27 H2         -0.9605    1.9041    0.0260 H         1 <0>         0.1287
     28 H3          1.1469    3.1732    0.0078 H         1 <0>         0.1324
     29 H4          3.3017    1.9877   -0.0191 H         1 <0>         0.1400
     30 H5          1.2176   -1.7605   -0.0193 H         1 <0>         0.1180
     31 H6         -0.9265   -0.5556    0.0079 H         1 <0>         0.1298
     32 H7          4.1805   -4.6634    0.8375 H         1 <0>         0.1430
     33 H8          5.3456   -6.8535    0.7727 H         1 <0>         0.1732
     34 H9          8.6503   -5.0472   -0.9870 H         1 <0>         0.2031
     35 H10         7.7413   -2.5549    1.1333 H         1 <0>         0.1232
     36 H11        10.1693   -2.1688    1.1081 H         1 <0>         0.1378
     37 H12         7.1689    0.9330   -1.2907 H         1 <0>         0.1421
     38 H13         9.9333    1.3490   -2.3585 H         1 <0>         0.3925
@<TRIPOS>BOND
     1    1    6 ar
     2    1    2 ar
     3    1   27 1
     4    2    3 ar
     5    2   28 1
     6    3    4 ar
     7    3   29 1
     8    4    5 ar
     9    4    7 1
    10    5    6 ar
    11    5   30 1
    12    6   31 1
    13    7    8 2
    14    7   12 1
    15    8   10 1
    16    9   12 1
    17   10   19 1
    18   10   11 2
    19   11   13 1
    20   11   12 1
    21   13   18 ar
    22   13   14 ar
    23   14   15 ar
    24   14   32 1
    25   15   16 ar
    26   15   33 1
    27   16   17 ar
    28   17   18 ar
    29   17   34 1
    30   19   24 ar
    31   19   20 ar
    32   20   21 ar
    33   20   35 1
    34   21   22 ar
    35   21   36 1
    36   22   23 ar
    37   22   26 1
    38   23   24 ar
    39   23   25 1
    40   24   37 1
    41   25   38 1
@<TRIPOS>MOLECULE
CHEMBL583894
   65    71     0     0     0
SMALL
USER_CHARGES

@<TRIPOS>ATOM
      1 C1         -5.6769    3.0714   -5.0572 C.3       1 <0>        -0.1517
      2 C2         -5.0161    2.7320   -3.7197 C.3       1 <0>         0.0797
      3 O1         -5.4861    1.4614   -3.2650 O.3       1 <0>        -0.3645
      4 C3         -4.9981    1.0127   -2.0932 C.2       1 <0>         0.6693
      5 O2         -4.1950    1.6817   -1.4735 O.2       1 <0>        -0.5691
      6 N1         -5.4003   -0.1784   -1.6075 N.am      1 <0>        -0.6020
      7 C4         -6.3576   -1.1382   -2.2087 C.3       1 <0>         0.1367
      8 C5         -7.2089   -1.6260   -1.0138 C.3       1 <0>        -0.1944
      9 C6         -6.3036   -1.4285    0.2202 C.3       1 <0>        -0.2225
     10 C7         -4.9855   -0.8429   -0.3483 C.3       1 <0>         0.1689
     11 C8         -4.0719   -2.0178   -0.7317 C.3       1 <0>        -0.1464
     12 C9         -4.8838   -3.0333   -1.5411 C.3       1 <0>        -0.0511
     13 C10        -5.5416   -2.3341   -2.7246 C.3       1 <0>        -0.1261
     14 C11        -5.9421   -3.6455   -0.6601 C.2       1 <0>         0.2171
     15 C12        -7.0935   -4.1183   -1.1973 C.2       1 <0>        -0.2181
     16 C13        -8.0638   -4.6841   -0.3583 C.2       1 <0>         0.1748
     17 N2         -7.8582   -4.7547    0.9366 N.2       1 <0>        -0.4484
     18 C14        -6.7264   -4.2916    1.4776 C.2       1 <0>         0.2678
     19 N3         -5.7512   -3.7364    0.6894 N.pl3     1 <0>        -0.2865
     20 N4         -4.6905   -3.3505    1.5163 N.2       1 <0>        -0.2927
     21 C15        -4.9834   -3.6545    2.7669 C.2       1 <0>         0.1698
     22 C16        -6.2624   -4.2437    2.7971 C.2       1 <0>        -0.1673
     23 C17        -6.9755   -4.7342    3.9973 C.ar      1 <0>         0.0227
     24 C18        -7.4433   -3.8213    4.9513 C.ar      1 <0>        -0.1243
     25 C19        -8.1021   -4.2604    6.0611 C.ar      1 <0>        -0.0688
     26 C20        -8.3137   -5.6292    6.2514 C.ar      1 <0>        -0.1048
     27 C21        -8.9650   -6.4186    7.2994 C.2       1 <0>        -0.2052
     28 C22        -8.8620   -7.7085    6.9415 C.2       1 <0>         0.0517
     29 N5         -8.1974   -7.8103    5.7488 N.pl3     1 <0>        -0.5976
     30 H1         -8.0022   -8.6416    5.2886 H         1 <0>         0.4151
     31 C23        -7.8481   -6.5557    5.2995 C.ar      1 <0>         0.0969
     32 C24        -7.1826   -6.0986    4.1695 C.ar      1 <0>        -0.1072
     33 C25        -4.1167   -3.4062    3.9438 C.ar      1 <0>         0.0235
     34 C26        -4.0080   -4.3518    4.9680 C.ar      1 <0>        -0.1340
     35 C27        -3.1902   -4.0803    6.0454 C.ar      1 <0>         0.1029
     36 N6         -2.5171   -2.9477    6.1163 N.ar      1 <0>        -0.4752
     37 C28        -2.5916   -2.0294    5.1719 C.ar      1 <0>         0.1008
     38 C29        -3.3813   -2.2224    4.0572 C.ar      1 <0>        -0.1412
     39 H2         -5.3184    4.0406   -5.4041 H         1 <0>         0.0830
     40 H3         -5.4245    2.3066   -5.7917 H         1 <0>         0.0665
     41 H4         -6.7587    3.1089   -4.9288 H         1 <0>         0.0662
     42 H5         -3.9343    2.6944   -3.8481 H         1 <0>         0.0679
     43 H6         -5.2685    3.4968   -2.9853 H         1 <0>         0.0674
     44 H7         -6.9590   -0.6822   -2.9951 H         1 <0>         0.1081
     45 H8         -8.1132   -1.0246   -0.9214 H         1 <0>         0.0703
     46 H9         -7.4629   -2.6792   -1.1336 H         1 <0>         0.1268
     47 H10        -6.7626   -0.7298    0.9197 H         1 <0>         0.0671
     48 H11        -6.1123   -2.3845    0.7076 H         1 <0>         0.1422
     49 H12        -4.5083   -0.1504    0.3451 H         1 <0>         0.1030
     50 H13        -3.2402   -1.6522   -1.3340 H         1 <0>         0.0790
     51 H14        -3.6895   -2.4929    0.1717 H         1 <0>         0.1248
     52 H15        -4.2212   -3.8168   -1.9089 H         1 <0>         0.1127
     53 H16        -6.2027   -3.0338   -3.2360 H         1 <0>         0.0887
     54 H17        -4.7749   -1.9824   -3.4150 H         1 <0>         0.0891
     55 H18        -7.2620   -4.0591   -2.2624 H         1 <0>         0.1784
     56 H19        -8.9837   -5.0630   -0.7785 H         1 <0>         0.1869
     57 H20        -7.2808   -2.7634    4.8069 H         1 <0>         0.1179
     58 H21        -8.4599   -3.5514    6.7929 H         1 <0>         0.1228
     59 H22        -9.4382   -6.0355    8.1915 H         1 <0>         0.1461
     60 H23        -9.2461   -8.5423    7.5104 H         1 <0>         0.1700
     61 H24        -6.8246   -6.7995    3.4298 H         1 <0>         0.1159
     62 H25        -4.5563   -5.2808    4.9166 H         1 <0>         0.1395
     63 H26        -3.0999   -4.8044    6.8416 H         1 <0>         0.1606
     64 H27        -2.0233   -1.1164    5.2706 H         1 <0>         0.1611
     65 H28        -3.4337   -1.4686    3.2856 H         1 <0>         0.1395
@<TRIPOS>BOND
     1    1    2 1
     2    1   39 1
     3    1   40 1
     4    1   41 1
     5    2    3 1
     6    2   42 1
     7    2   43 1
     8    3    4 1
     9    4    5 2
    10    4    6 am
    11    6   10 1
    12    6    7 1
    13    7   13 1
    14    7    8 1
    15    7   44 1
    16    8    9 1
    17    8   45 1
    18    8   46 1
    19    9   10 1
    20    9   47 1
    21    9   48 1
    22   10   11 1
    23   10   49 1
    24   11   12 1
    25   11   50 1
    26   11   51 1
    27   12   13 1
    28   12   14 1
    29   12   52 1
    30   13   53 1
    31   13   54 1
    32   14   19 1
    33   14   15 2
    34   15   16 1
    35   15   55 1
    36   16   17 2
    37   16   56 1
    38   17   18 1
    39   18   22 2
    40   18   19 1
    41   19   20 1
    42   20   21 2
    43   21   22 1
    44   21   33 1
    45   22   23 1
    46   23   32 ar
    47   23   24 ar
    48   24   25 ar
    49   24   57 1
    50   25   26 ar
    51   25   58 1
    52   26   31 ar
    53   26   27 1
    54   27   28 2
    55   27   59 1
    56   28   29 1
    57   28   60 1
    58   29   30 1
    59   29   31 1
    60   31   32 ar
    61   32   61 1
    62   33   38 ar
    63   33   34 ar
    64   34   35 ar
    65   34   62 1
    66   35   36 ar
    67   35   63 1
    68   36   37 ar
    69   37   38 ar
    70   37   64 1
    71   38   65 1
@<TRIPOS>MOLECULE
CHEMBL500660
   39    42     0     0     0
SMALL
USER_CHARGES

@<TRIPOS>ATOM
      1 C1         -0.0178    1.4608    0.0101 C.3       1 <0>         0.0912
      2 N1          0.0021   -0.0041    0.0020 N.pl3     1 <0>        -0.3582
      3 C2          0.0079   -0.7980   -1.1054 C.2       1 <0>         0.1300
      4 C3          0.0283   -2.1143   -0.6609 C.2       1 <0>        -0.1813
      5 C4          0.0344   -2.0800    0.7452 C.2       1 <0>         0.0684
      6 N2          0.0245   -0.8318    1.1304 N.2       1 <0>        -0.2800
      7 C5          0.0404   -3.3280   -1.5099 C.ar      1 <0>         0.0234
      8 C6         -0.8851   -3.4660   -2.5458 C.ar      1 <0>        -0.1138
      9 C7         -0.8729   -4.5924   -3.3326 C.ar      1 <0>        -0.0642
     10 C8          0.0676   -5.6076   -3.0999 C.ar      1 <0>        -0.0700
     11 C9          0.9905   -5.4668   -2.0646 C.ar      1 <0>        -0.0565
     12 C10         0.9800   -4.3322   -1.2795 C.ar      1 <0>        -0.1028
     13 C11         1.8885   -6.6799   -2.0168 C.3       1 <0>        -0.0830
     14 C12         1.4231   -7.6075   -3.1474 C.3       1 <0>        -0.1142
     15 C13         0.2702   -6.8886   -3.8049 C.2       1 <0>         0.1735
     16 N3         -0.4204   -7.3202   -4.8107 N.2       1 <0>        -0.3261
     17 O1         -0.1154   -8.5744   -5.3929 O.3       1 <0>        -0.4062
     18 C14        -0.0050   -0.3454   -2.5113 C.ar      1 <0>         0.0123
     19 C15         0.8436   -0.9259   -3.4623 C.ar      1 <0>        -0.1364
     20 C16         0.7979   -0.4727   -4.7639 C.ar      1 <0>         0.1081
     21 N4         -0.0293    0.4931   -5.1167 N.ar      1 <0>        -0.4768
     22 C17        -0.8454    1.0671   -4.2530 C.ar      1 <0>         0.1067
     23 C18        -0.8704    0.6723   -2.9320 C.ar      1 <0>        -0.1647
     24 H1          1.0048    1.8381    0.0023 H         1 <0>         0.0801
     25 H2         -0.5450    1.8219   -0.8730 H         1 <0>         0.0910
     26 H3         -0.5280    1.8123    0.9069 H         1 <0>         0.0970
     27 H4          0.0494   -2.9410    1.3969 H         1 <0>         0.1916
     28 H5         -1.6111   -2.6875   -2.7286 H         1 <0>         0.1241
     29 H6         -1.5902   -4.6970   -4.1332 H         1 <0>         0.1285
     30 H7          1.6990   -4.2236   -0.4810 H         1 <0>         0.1306
     31 H8          2.9253   -6.3846   -2.1779 H         1 <0>         0.0903
     32 H9          1.7873   -7.1826   -1.0549 H         1 <0>         0.0907
     33 H10         2.2293   -7.7629   -3.8643 H         1 <0>         0.0947
     34 H11         1.0899   -8.5619   -2.7398 H         1 <0>         0.0947
     35 H12        -0.6849   -8.8112   -6.1377 H         1 <0>         0.4061
     36 H13         1.5236   -1.7162   -3.1806 H         1 <0>         0.1404
     37 H14         1.4483   -0.9139   -5.5046 H         1 <0>         0.1622
     38 H15        -1.5057    1.8541   -4.5863 H         1 <0>         0.1617
     39 H16        -1.5439    1.1437   -2.2316 H         1 <0>         0.1369
@<TRIPOS>BOND
     1    1    2 1
     2    1   24 1
     3    1   25 1
     4    1   26 1
     5    2    6 1
     6    2    3 1
     7    3    4 2
     8    3   18 1
     9    4    5 1
    10    4    7 1
    11    5    6 2
    12    5   27 1
    13    7   12 ar
    14    7    8 ar
    15    8    9 ar
    16    8   28 1
    17    9   10 ar
    18    9   29 1
    19   10   15 1
    20   10   11 ar
    21   11   12 ar
    22   11   13 1
    23   12   30 1
    24   13   14 1
    25   13   31 1
    26   13   32 1
    27   14   15 1
    28   14   33 1
    29   14   34 1
    30   15   16 2
    31   16   17 1
    32   17   35 1
    33   18   23 ar
    34   18   19 ar
    35   19   20 ar
    36   19   36 1
    37   20   21 ar
    38   20   37 1
    39   21   22 ar
    40   22   23 ar
    41   22   38 1
    42   23   39 1
@<TRIPOS>MOLECULE
CHEMBL402029
   58    62     0     0     0
SMALL
USER_CHARGES

@<TRIPOS>ATOM
      1 C1         -0.0178    1.4608    0.0101 C.3       1 <0>         0.0975
      2 N1          0.0021   -0.0041    0.0020 N.pl3     1 <0>        -0.6890
      3 C2          0.6008   -0.6823   -1.0455 C.ar      1 <0>         0.5808
      4 N2          1.1558    0.0107   -2.0299 N.ar      1 <0>        -0.5454
      5 C3          1.7390   -0.5994   -3.0507 C.ar      1 <0>         0.2181
      6 C4          1.7676   -1.9805   -3.0872 C.ar      1 <0>        -0.2740
      7 C5          1.1735   -2.6879   -2.0336 C.ar      1 <0>         0.2564
      8 N3          0.6090   -2.0054   -1.0355 N.ar      1 <0>        -0.5429
      9 C6          1.1767   -4.1620   -2.0252 C.2       1 <0>         0.1065
     10 C7          1.0846   -4.9878   -0.9180 C.2       1 <0>         0.1391
     11 N4          1.1257   -6.2571   -1.3601 N.pl3     1 <0>        -0.4698
     12 C8          1.2364   -6.2641   -2.6598 C.cat     1 <0>         0.3791
     13 N5          1.2660   -4.9957   -3.1179 N.pl3     1 <0>        -0.4990
     14 H1          1.3386   -4.7213   -4.0455 H         1 <0>         0.4641
     15 C9          1.3129   -7.5000   -3.5186 C.3       1 <0>        -0.1462
     16 C10         2.1745   -7.4308   -4.7811 C.3       1 <0>        -0.1420
     17 C11         0.6489   -7.4455   -4.8959 C.3       1 <0>        -0.1430
     18 C12         0.9637   -4.5533    0.4933 C.ar      1 <0>        -0.0415
     19 C13         1.7723   -3.5262    0.9809 C.ar      1 <0>        -0.0526
     20 C14         1.6586   -3.1232    2.2960 C.ar      1 <0>        -0.0898
     21 C15         0.7449   -3.7341    3.1342 C.ar      1 <0>        -0.1176
     22 C16        -0.0654   -4.7579    2.6575 C.ar      1 <0>         0.1441
     23 C17         0.0382   -5.1654    1.3358 C.ar      1 <0>        -0.1053
     24 N6         -0.9875   -5.3726    3.5080 N.pl3     1 <0>        -1.0588
     25 S1         -1.9398   -4.4514    4.5013 S.o2      1 <0>         2.5964
     26 O1         -2.7222   -5.3902    5.2264 O.2       1 <0>        -0.9293
     27 O2         -1.0333   -3.5895    5.1757 O.2       1 <0>        -0.9307
     28 C18        -2.9948   -3.4936    3.3788 C.3       1 <0>        -0.5777
     29 C19        -3.9127   -2.6100    4.1836 C.ar      1 <0>        -0.0867
     30 C20        -5.1504   -3.0802    4.5820 C.ar      1 <0>        -0.0866
     31 C21        -5.9933   -2.2708    5.3198 C.ar      1 <0>        -0.0922
     32 C22        -5.5987   -0.9893    5.6604 C.ar      1 <0>        -0.0198
     33 C23        -4.3593   -0.5186    5.2618 C.ar      1 <0>        -0.0302
     34 C24        -3.5146   -1.3320    4.5278 C.ar      1 <0>        -0.0834
     35 Cl1        -3.8628    1.0895    5.6879 Cl        1 <0>        -0.0322
     36 Cl2        -6.6574    0.0281    6.5866 Cl        1 <0>        -0.0302
     37 H2          1.0048    1.8381    0.0023 H         1 <0>         0.0677
     38 H3         -0.5450    1.8219   -0.8730 H         1 <0>         0.0663
     39 H4         -0.5280    1.8123    0.9069 H         1 <0>         0.0847
     40 H5         -0.4044   -0.4986    0.7308 H         1 <0>         0.4177
     41 H6          2.1872   -0.0233   -3.8467 H         1 <0>         0.1825
     42 H7          2.2365   -2.5023   -3.9083 H         1 <0>         0.1454
     43 H8          1.2813   -8.4482   -2.9819 H         1 <0>         0.1650
     44 H9          2.6859   -6.4913   -4.9905 H         1 <0>         0.1090
     45 H10         2.7100   -8.3335   -5.0751 H         1 <0>         0.1329
     46 H11         0.1807   -8.3578   -5.2654 H         1 <0>         0.1326
     47 H12         0.1566   -6.5156   -5.1808 H         1 <0>         0.1086
     48 H13         2.4876   -3.0467    0.3292 H         1 <0>         0.1258
     49 H14         2.2858   -2.3282    2.6714 H         1 <0>         0.1444
     50 H15         0.6605   -3.4153    4.1626 H         1 <0>         0.1718
     51 H16        -0.5933   -5.9578    0.9622 H         1 <0>         0.1335
     52 H17        -1.0699   -6.3390    3.5167 H         1 <0>         0.4307
     53 H18        -2.3711   -2.8763    2.7321 H         1 <0>         0.1461
     54 H19        -3.5885   -4.1743    2.7687 H         1 <0>         0.1502
     55 H20        -5.4588   -4.0806    4.3163 H         1 <0>         0.1485
     56 H21        -6.9602   -2.6385    5.6301 H         1 <0>         0.1545
     57 H22        -2.5459   -0.9669    4.2200 H         1 <0>         0.1501
     58 H23         1.0805   -7.0467   -0.7984 H         1 <0>         0.4659
@<TRIPOS>BOND
     1    1    2 1
     2    1   37 1
     3    1   38 1
     4    1   39 1
     5    2    3 1
     6    2   40 1
     7    3    8 ar
     8    3    4 ar
     9    4    5 ar
    10    5    6 ar
    11    5   41 1
    12    6    7 ar
    13    6   42 1
    14    7    8 ar
    15    7    9 1
    16    9   13 1
    17    9   10 2
    18   10   11 1
    19   10   18 1
    20   11   12 2
    21   11   58 1
    22   12   13 1
    23   12   15 1
    24   13   14 1
    25   15   17 1
    26   15   16 1
    27   15   43 1
    28   16   17 1
    29   16   44 1
    30   16   45 1
    31   17   46 1
    32   17   47 1
    33   18   23 ar
    34   18   19 ar
    35   19   20 ar
    36   19   48 1
    37   20   21 ar
    38   20   49 1
    39   21   22 ar
    40   21   50 1
    41   22   23 ar
    42   22   24 1
    43   23   51 1
    44   24   25 1
    45   24   52 1
    46   25   26 2
    47   25   27 2
    48   25   28 1
    49   28   29 1
    50   28   53 1
    51   28   54 1
    52   29   34 ar
    53   29   30 ar
    54   30   31 ar
    55   30   55 1
    56   31   32 ar
    57   31   56 1
    58   32   33 ar
    59   32   36 1
    60   33   34 ar
    61   33   35 1
    62   34   57 1
@<TRIPOS>MOLECULE
CHEMBL402029__1
   57    61     0     0     0
SMALL
USER_CHARGES

@<TRIPOS>ATOM
      1 C1         -0.0178    1.4608    0.0101 C.3       1 <0>         0.1072
      2 N1          0.0021   -0.0041    0.0020 N.pl3     1 <0>        -0.7040
      3 C2         -1.1871   -0.7124    0.0096 C.ar      1 <0>         0.5661
      4 N2         -2.3341   -0.0482    0.0186 N.ar      1 <0>        -0.5689
      5 C3         -3.4933   -0.6884    0.0256 C.ar      1 <0>         0.1917
      6 C4         -3.5030   -2.0707    0.0234 C.ar      1 <0>        -0.2595
      7 C5         -2.2772   -2.7457    0.0138 C.ar      1 <0>         0.2995
      8 N3         -1.1494   -2.0352    0.0021 N.ar      1 <0>        -0.5575
      9 C6         -2.2337   -4.2240    0.0111 C.2       1 <0>         0.0532
     10 C7         -1.1997   -5.0121   -0.4639 C.2       1 <0>         0.0703
     11 N4         -1.5874   -6.3143   -0.2658 N.pl3     1 <0>        -0.5561
     12 C8         -2.8161   -6.2874    0.3100 C.2       1 <0>         0.2574
     13 N5         -3.1907   -5.0506    0.4758 N.2       1 <0>        -0.4516
     14 H1         -1.0776   -7.1069   -0.4952 H         1 <0>         0.4232
     15 C9         -3.6205   -7.5002    0.7015 C.3       1 <0>        -0.0797
     16 C10        -3.2076   -8.8456    0.1012 C.3       1 <0>        -0.1751
     17 C11        -4.4849   -8.1535   -0.3788 C.3       1 <0>        -0.1533
     18 C12         0.0668   -4.5457   -1.0640 C.ar      1 <0>         0.0068
     19 C13         0.0572   -3.5198   -2.0120 C.ar      1 <0>        -0.0629
     20 C14         1.2416   -3.0861   -2.5711 C.ar      1 <0>        -0.0946
     21 C15         2.4407   -3.6638   -2.1969 C.ar      1 <0>        -0.1414
     22 C16         2.4613   -4.6857   -1.2547 C.ar      1 <0>         0.1326
     23 C17         1.2773   -5.1244   -0.6818 C.ar      1 <0>        -0.1179
     24 N6          3.6755   -5.2666   -0.8808 N.pl3     1 <0>        -1.0556
     25 S1          4.9863   -4.3084   -0.5551 S.o2      1 <0>         2.6023
     26 O1          6.0309   -5.2183   -0.2389 O.2       1 <0>        -0.9398
     27 O2          5.0928   -3.4455   -1.6791 O.2       1 <0>        -0.9340
     28 C18         4.5161   -3.3603    0.9182 C.3       1 <0>        -0.5835
     29 C19         5.6476   -2.4446    1.3084 C.ar      1 <0>        -0.0787
     30 C20         6.6244   -2.8865    2.1815 C.ar      1 <0>        -0.0878
     31 C21         7.6623   -2.0476    2.5405 C.ar      1 <0>        -0.0936
     32 C22         7.7246   -0.7649    2.0260 C.ar      1 <0>        -0.0226
     33 C23         6.7468   -0.3225    1.1514 C.ar      1 <0>        -0.0293
     34 C24         5.7113   -1.1654    0.7890 C.ar      1 <0>        -0.0830
     35 Cl1         6.8231    1.2870    0.5053 Cl        1 <0>        -0.0357
     36 Cl2         9.0278    0.2896    2.4771 Cl        1 <0>        -0.0370
     37 H2          1.0048    1.8381    0.0023 H         1 <0>         0.0747
     38 H3         -0.5450    1.8219   -0.8730 H         1 <0>         0.0596
     39 H4         -0.5280    1.8123    0.9069 H         1 <0>         0.0584
     40 H5          0.8486   -0.4776   -0.0086 H         1 <0>         0.4123
     41 H6         -4.4215   -0.1363    0.0333 H         1 <0>         0.1691
     42 H7         -4.4347   -2.6169    0.0293 H         1 <0>         0.1482
     43 H8         -4.0043   -7.5005    1.7216 H         1 <0>         0.1372
     44 H9         -2.3542   -8.8535   -0.5769 H         1 <0>         0.0915
     45 H10        -3.3197   -9.7314    0.7265 H         1 <0>         0.1107
     46 H11        -5.4373   -8.5838   -0.0692 H         1 <0>         0.1098
     47 H12        -4.4718   -7.7060   -1.3726 H         1 <0>         0.0987
     48 H13        -0.8774   -3.0663   -2.3076 H         1 <0>         0.1206
     49 H14         1.2321   -2.2927   -3.3039 H         1 <0>         0.1338
     50 H15         3.3645   -3.3202   -2.6383 H         1 <0>         0.1620
     51 H16         1.2916   -5.9149    0.0539 H         1 <0>         0.1262
     52 H17         3.7507   -6.2312   -0.8119 H         1 <0>         0.4272
     53 H18         3.6276   -2.7676    0.7006 H         1 <0>         0.1498
     54 H19         4.3038   -4.0456    1.7388 H         1 <0>         0.1503
     55 H20         6.5761   -3.8878    2.5834 H         1 <0>         0.1484
     56 H21         8.4246   -2.3932    3.2231 H         1 <0>         0.1525
     57 H22         4.9504   -0.8223    0.1037 H         1 <0>         0.1519
@<TRIPOS>BOND
     1    1    2 1
     2    1   37 1
     3    1   38 1
     4    1   39 1
     5    2    3 1
     6    2   40 1
     7    3    8 ar
     8    3    4 ar
     9    4    5 ar
    10    5    6 ar
    11    5   41 1
    12    6    7 ar
    13    6   42 1
    14    7    8 ar
    15    7    9 1
    16    9   13 1
    17    9   10 2
    18   10   18 1
    19   10   11 1
    20   11   12 1
    21   11   14 1
    22   12   15 1
    23   12   13 2
    24   15   17 1
    25   15   16 1
    26   15   43 1
    27   16   17 1
    28   16   44 1
    29   16   45 1
    30   17   46 1
    31   17   47 1
    32   18   23 ar
    33   18   19 ar
    34   19   20 ar
    35   19   48 1
    36   20   21 ar
    37   20   49 1
    38   21   22 ar
    39   21   50 1
    40   22   23 ar
    41   22   24 1
    42   23   51 1
    43   24   25 1
    44   24   52 1
    45   25   26 2
    46   25   27 2
    47   25   28 1
    48   28   29 1
    49   28   53 1
    50   28   54 1
    51   29   34 ar
    52   29   30 ar
    53   30   31 ar
    54   30   55 1
    55   31   32 ar
    56   31   56 1
    57   32   33 ar
    58   32   36 1
    59   33   34 ar
    60   33   35 1
    61   34   57 1
@<TRIPOS>MOLECULE
CHEMBL402029__2
   57    61     0     0     0
SMALL
USER_CHARGES

@<TRIPOS>ATOM
      1 C1         -0.0178    1.4608    0.0101 C.3       1 <0>         0.1050
      2 N1          0.0021   -0.0041    0.0020 N.pl3     1 <0>        -0.6987
      3 C2          0.6008   -0.6823   -1.0455 C.ar      1 <0>         0.5724
      4 N2          1.1558    0.0107   -2.0299 N.ar      1 <0>        -0.5678
      5 C3          1.7390   -0.5994   -3.0507 C.ar      1 <0>         0.2036
      6 C4          1.7676   -1.9805   -3.0872 C.ar      1 <0>        -0.2907
      7 C5          1.1735   -2.6879   -2.0336 C.ar      1 <0>         0.2946
      8 N3          0.6090   -2.0054   -1.0355 N.ar      1 <0>        -0.5479
      9 C6          1.1767   -4.1620   -2.0252 C.2       1 <0>         0.0082
     10 C7          1.0846   -4.9878   -0.9180 C.2       1 <0>         0.1116
     11 N4          1.1257   -6.2571   -1.3601 N.2       1 <0>        -0.4696
     12 C8          1.2364   -6.2641   -2.6598 C.2       1 <0>         0.2739
     13 N5          1.2660   -4.9957   -3.1179 N.pl3     1 <0>        -0.5469
     14 H1          1.3386   -4.7213   -4.0455 H         1 <0>         0.4233
     15 C9          1.3129   -7.5000   -3.5186 C.3       1 <0>        -0.0827
     16 C10         1.0567   -7.3354   -5.0180 C.3       1 <0>        -0.1747
     17 C11         0.0098   -8.0151   -4.1331 C.3       1 <0>        -0.1530
     18 C12         0.9637   -4.5533    0.4933 C.ar      1 <0>         0.0135
     19 C13         1.6141   -3.3981    0.9279 C.ar      1 <0>        -0.0652
     20 C14         1.5007   -2.9952    2.2430 C.ar      1 <0>        -0.1046
     21 C15         0.7437   -3.7330    3.1337 C.ar      1 <0>        -0.1428
     22 C16         0.0917   -4.8850    2.7101 C.ar      1 <0>         0.1235
     23 C17         0.1955   -5.2941    1.3889 C.ar      1 <0>        -0.0960
     24 N6         -0.6723   -5.6277    3.6135 N.pl3     1 <0>        -1.0535
     25 S1         -1.7136   -4.8582    4.6459 S.o2      1 <0>         2.6035
     26 O1         -2.2924   -5.8997    5.4201 O.2       1 <0>        -0.9415
     27 O2         -0.9301   -3.8463    5.2635 O.2       1 <0>        -0.9355
     28 C18        -2.9672   -4.1085    3.5704 C.3       1 <0>        -0.5855
     29 C19        -3.9777   -3.3738    4.4132 C.ar      1 <0>        -0.0771
     30 C20        -5.0990   -4.0345    4.8802 C.ar      1 <0>        -0.0880
     31 C21        -6.0267   -3.3618    5.6528 C.ar      1 <0>        -0.0938
     32 C22        -5.8335   -2.0267    5.9596 C.ar      1 <0>        -0.0234
     33 C23        -4.7106   -1.3653    5.4924 C.ar      1 <0>        -0.0293
     34 C24        -3.7804   -2.0416    4.7235 C.ar      1 <0>        -0.0835
     35 Cl1        -4.4671    0.3102    5.8760 Cl        1 <0>        -0.0371
     36 Cl2        -6.9988   -1.1811    6.9296 Cl        1 <0>        -0.0382
     37 H2          1.0048    1.8381    0.0023 H         1 <0>         0.0612
     38 H3         -0.5450    1.8219   -0.8730 H         1 <0>         0.0597
     39 H4         -0.5280    1.8123    0.9069 H         1 <0>         0.0777
     40 H5         -0.4044   -0.4986    0.7308 H         1 <0>         0.4160
     41 H6          2.1872   -0.0233   -3.8467 H         1 <0>         0.1707
     42 H7          2.2365   -2.5023   -3.9083 H         1 <0>         0.1380
     43 H8          2.0520   -8.2403   -3.2123 H         1 <0>         0.1391
     44 H9          0.8328   -6.3331   -5.3833 H         1 <0>         0.0918
     45 H10         1.6274   -7.9674   -5.6985 H         1 <0>         0.1118
     46 H11        -0.1082   -9.0942   -4.2315 H         1 <0>         0.1105
     47 H12        -0.9028   -7.4600   -3.9162 H         1 <0>         0.0983
     48 H13         2.2067   -2.8191    0.2351 H         1 <0>         0.1169
     49 H14         2.0053   -2.1008    2.5774 H         1 <0>         0.1290
     50 H15         0.6590   -3.4135    4.1619 H         1 <0>         0.1592
     51 H16        -0.3137   -6.1867    1.0566 H         1 <0>         0.1330
     52 H17        -0.5928   -6.5942    3.6361 H         1 <0>         0.4279
     53 H18        -2.4874   -3.4088    2.8861 H         1 <0>         0.1495
     54 H19        -3.4695   -4.8890    2.9989 H         1 <0>         0.1504
     55 H20        -5.2501   -5.0767    4.6408 H         1 <0>         0.1488
     56 H21        -6.9026   -3.8783    6.0167 H         1 <0>         0.1523
     57 H22        -2.9021   -1.5273    4.3620 H         1 <0>         0.1519
@<TRIPOS>BOND
     1    1    2 1
     2    1   37 1
     3    1   38 1
     4    1   39 1
     5    2    3 1
     6    2   40 1
     7    3    8 ar
     8    3    4 ar
     9    4    5 ar
    10    5    6 ar
    11    5   41 1
    12    6    7 ar
    13    6   42 1
    14    7    8 ar
    15    7    9 1
    16    9   13 1
    17    9   10 2
    18   10   11 1
    19   10   18 1
    20   11   12 2
    21   12   13 1
    22   12   15 1
    23   13   14 1
    24   15   17 1
    25   15   16 1
    26   15   43 1
    27   16   17 1
    28   16   44 1
    29   16   45 1
    30   17   46 1
    31   17   47 1
    32   18   23 ar
    33   18   19 ar
    34   19   20 ar
    35   19   48 1
    36   20   21 ar
    37   20   49 1
    38   21   22 ar
    39   21   50 1
    40   22   23 ar
    41   22   24 1
    42   23   51 1
    43   24   25 1
    44   24   52 1
    45   25   26 2
    46   25   27 2
    47   25   28 1
    48   28   29 1
    49   28   53 1
    50   28   54 1
    51   29   34 ar
    52   29   30 ar
    53   30   31 ar
    54   30   55 1
    55   31   32 ar
    56   31   56 1
    57   32   33 ar
    58   32   36 1
    59   33   34 ar
    60   33   35 1
    61   34   57 1
@<TRIPOS>MOLECULE
CHEMBL549476
   47    50     0     0     0
SMALL
USER_CHARGES

@<TRIPOS>ATOM
      1 C1         -1.1395    1.6042    0.1681 C.3       1 <0>         0.0382
      2 O1         -0.9545    0.1884    0.1093 O.3       1 <0>        -0.3548
      3 C2         -2.0616   -0.5778    0.1914 C.2       1 <0>         0.5432
      4 O2         -3.1545   -0.0569    0.3097 O.2       1 <0>        -0.4994
      5 C3         -1.9479   -2.0363    0.1381 C.2       1 <0>        -0.2864
      6 C4         -0.7601   -2.7803    0.0105 C.2       1 <0>         0.1523
      7 N1         -1.0608   -4.0517   -0.0005 N.2       1 <0>        -0.3017
      8 N2         -2.4460   -4.2058    0.1181 N.pl3     1 <0>        -0.2958
      9 C5         -3.0066   -2.9639    0.2109 C.2       1 <0>         0.3347
     10 N3         -4.3247   -2.8142    0.3392 N.2       1 <0>        -0.4513
     11 C6         -5.1300   -3.8545    0.3844 C.2       1 <0>         0.1966
     12 C7         -4.6134   -5.1473    0.2984 C.2       1 <0>        -0.2073
     13 C8         -3.2492   -5.3172    0.1565 C.2       1 <0>         0.2504
     14 C9         -2.6653   -6.6711    0.0646 C.ar      1 <0>        -0.0586
     15 C10        -1.8291   -7.1441    1.0786 C.ar      1 <0>        -0.0825
     16 C11        -1.2855   -8.4091    0.9904 C.ar      1 <0>        -0.0952
     17 C12        -1.5649   -9.2123   -0.0998 C.ar      1 <0>        -0.1179
     18 C13        -2.3956   -8.7512   -1.1141 C.ar      1 <0>         0.1463
     19 C14        -2.9517   -7.4839   -1.0325 C.ar      1 <0>        -0.0813
     20 N4         -2.6746   -9.5677   -2.2150 N.am      1 <0>        -0.6682
     21 C15        -2.8619   -9.0182   -3.4313 C.2       1 <0>         0.5624
     22 O3         -2.6941   -7.8250   -3.5916 O.2       1 <0>        -0.5053
     23 C16        -3.2713   -9.8666   -4.5705 C.ar      1 <0>        -0.1394
     24 C17        -3.4704  -11.2364   -4.3886 C.ar      1 <0>        -0.0537
     25 C18        -3.8523  -12.0223   -5.4558 C.ar      1 <0>        -0.1227
     26 C19        -4.0377  -11.4559   -6.7048 C.ar      1 <0>        -0.0414
     27 C20        -3.8421  -10.0993   -6.8918 C.ar      1 <0>        -0.1879
     28 C21        -3.4660   -9.3007   -5.8314 C.ar      1 <0>        -0.0065
     29 C22        -4.0459   -9.4913   -8.2556 C.3       1 <0>         0.5099
     30 F1         -4.4268  -10.4893   -9.1589 F         1 <0>        -0.1740
     31 F2         -5.0478   -8.5173   -8.1870 F         1 <0>        -0.1725
     32 F3         -2.8522   -8.9028   -8.6869 F         1 <0>        -0.1723
     33 H1         -0.1722    2.1005    0.0913 H         1 <0>         0.1021
     34 H2         -1.7774    1.9218   -0.6568 H         1 <0>         0.0598
     35 H3         -1.6103    1.8701    1.1146 H         1 <0>         0.0598
     36 H4          0.2353   -2.3683   -0.0661 H         1 <0>         0.2139
     37 H5         -6.1947   -3.7065    0.4889 H         1 <0>         0.1916
     38 H6         -5.2709   -6.0033    0.3358 H         1 <0>         0.1754
     39 H7         -1.6079   -6.5195    1.9315 H         1 <0>         0.1280
     40 H8         -0.6393   -8.7731    1.7754 H         1 <0>         0.1387
     41 H9         -1.1358  -10.2014   -0.1635 H         1 <0>         0.1348
     42 H10        -3.6007   -7.1253   -1.8177 H         1 <0>         0.1418
     43 H11        -2.7333  -10.5295   -2.1030 H         1 <0>         0.4137
     44 H12        -3.3253  -11.6797   -3.4145 H         1 <0>         0.1376
     45 H13        -4.0067  -13.0821   -5.3165 H         1 <0>         0.1471
     46 H14        -4.3361  -12.0759   -7.5372 H         1 <0>         0.1480
     47 H15        -3.3180   -8.2409   -5.9777 H         1 <0>         0.1497
@<TRIPOS>BOND
     1    1    2 1
     2    1   33 1
     3    1   34 1
     4    1   35 1
     5    2    3 1
     6    3    4 2
     7    3    5 1
     8    5    9 2
     9    5    6 1
    10    6    7 2
    11    6   36 1
    12    7    8 1
    13    8   13 1
    14    8    9 1
    15    9   10 1
    16   10   11 2
    17   11   12 1
    18   11   37 1
    19   12   13 2
    20   12   38 1
    21   13   14 1
    22   14   19 ar
    23   14   15 ar
    24   15   16 ar
    25   15   39 1
    26   16   17 ar
    27   16   40 1
    28   17   18 ar
    29   17   41 1
    30   18   19 ar
    31   18   20 1
    32   19   42 1
    33   20   21 am
    34   20   43 1
    35   21   22 2
    36   21   23 1
    37   23   28 ar
    38   23   24 ar
    39   24   25 ar
    40   24   44 1
    41   25   26 ar
    42   25   45 1
    43   26   27 ar
    44   26   46 1
    45   27   28 ar
    46   27   29 1
    47   28   47 1
    48   29   30 1
    49   29   31 1
    50   29   32 1
@<TRIPOS>MOLECULE
CHEMBL569312
   60    65     0     0     0
SMALL
USER_CHARGES

@<TRIPOS>ATOM
      1 C1          0.5133    2.9816   -7.9129 C.3       1 <0>        -0.6585
      2 S1         -0.4338    2.5909   -6.4159 S.o2      1 <0>         2.4158
      3 O1         -0.3768    3.7106   -5.5429 O.2       1 <0>        -0.9410
      4 O2         -1.7022    2.0829   -6.8063 O.2       1 <0>        -0.9293
      5 C2          0.5235    1.2384   -5.6777 C.3       1 <0>        -0.5788
      6 C3          0.4475   -0.0399   -6.5539 C.3       1 <0>        -0.0653
      7 C4         -0.9556   -0.6111   -6.2445 C.3       1 <0>        -0.2026
      8 C5         -1.3256   -0.1055   -4.8385 C.3       1 <0>        -0.2408
      9 C6         -0.1303    0.7496   -4.3582 C.3       1 <0>        -0.0499
     10 C7          0.8785   -0.2020   -3.6915 C.3       1 <0>        -0.1235
     11 C8          1.0568   -1.4382   -4.5750 C.3       1 <0>        -0.0497
     12 C9          1.4822   -1.0270   -5.9858 C.3       1 <0>        -0.1051
     13 C10        -0.2462   -2.1920   -4.6469 C.2       1 <0>         0.2154
     14 C11        -0.5382   -2.9568   -5.7275 C.2       1 <0>        -0.2073
     15 C12        -1.7565   -3.6491   -5.7725 C.2       1 <0>         0.1726
     16 N1         -2.6067   -3.5563   -4.7762 N.2       1 <0>        -0.4506
     17 C13        -2.3291   -2.8050   -3.7053 C.2       1 <0>         0.2698
     18 N2         -1.1455   -2.1179   -3.6217 N.pl3     1 <0>        -0.2753
     19 N3         -1.1257   -1.4321   -2.4022 N.2       1 <0>        -0.2916
     20 C14        -2.2436   -1.6818   -1.7467 C.2       1 <0>         0.1721
     21 C15        -3.0416   -2.5369   -2.5313 C.2       1 <0>        -0.1839
     22 C16        -4.3768   -3.0663   -2.1735 C.ar      1 <0>         0.0277
     23 C17        -5.4634   -2.1992   -2.0497 C.ar      1 <0>        -0.0982
     24 C18        -6.7069   -2.6955   -1.7160 C.ar      1 <0>        -0.0924
     25 C19        -6.8805   -4.0516   -1.5029 C.ar      1 <0>        -0.0618
     26 C20        -5.8042   -4.9215   -1.6240 C.ar      1 <0>         0.1192
     27 C21        -4.5540   -4.4336   -1.9646 C.ar      1 <0>        -0.1126
     28 O3         -5.9796   -6.2529   -1.4133 O.3       1 <0>        -0.4864
     29 Cl1        -8.4480   -4.6677   -1.0822 Cl        1 <0>        -0.0568
     30 C22        -2.6043   -1.1425   -0.4135 C.ar      1 <0>         0.0213
     31 C23        -3.2402   -1.9457    0.5380 C.ar      1 <0>        -0.1376
     32 C24        -3.5582   -1.4037    1.7662 C.ar      1 <0>         0.1045
     33 N4         -3.2705   -0.1471    2.0470 N.ar      1 <0>        -0.4741
     34 C25        -2.6713    0.6442    1.1779 C.ar      1 <0>         0.1021
     35 C26        -2.3126    0.1813   -0.0714 C.ar      1 <0>        -0.1412
     36 H1          1.5233    3.2834   -7.6354 H         1 <0>         0.1280
     37 H2          0.5603    2.1008   -8.5533 H         1 <0>         0.1284
     38 H3          0.0254    3.7953   -8.4494 H         1 <0>         0.1304
     39 H4          1.5582    1.5392   -5.5132 H         1 <0>         0.1414
     40 H5          0.6042    0.1665   -7.6126 H         1 <0>         0.0983
     41 H6         -1.6777   -0.2473   -6.9755 H         1 <0>         0.0859
     42 H7         -0.9272   -1.7007   -6.2554 H         1 <0>         0.1249
     43 H8         -2.2278    0.5045   -4.8850 H         1 <0>         0.0716
     44 H9         -1.4774   -0.9490   -4.1650 H         1 <0>         0.1474
     45 H10        -0.4355    1.5717   -3.7108 H         1 <0>         0.0956
     46 H11         1.8365    0.3048   -3.5758 H         1 <0>         0.0771
     47 H12         0.5036   -0.5038   -2.7134 H         1 <0>         0.1163
     48 H13         1.8206   -2.0840   -4.1418 H         1 <0>         0.1100
     49 H14         1.5325   -1.9096   -6.6234 H         1 <0>         0.0819
     50 H15         2.4604   -0.5476   -5.9466 H         1 <0>         0.0875
     51 H16         0.1614   -3.0318   -6.5468 H         1 <0>         0.1786
     52 H17        -1.9967   -4.2604   -6.6298 H         1 <0>         0.1878
     53 H18        -5.3309   -1.1402   -2.2147 H         1 <0>         0.1315
     54 H19        -7.5470   -2.0235   -1.6205 H         1 <0>         0.1392
     55 H20        -3.7175   -5.1094   -2.0638 H         1 <0>         0.1350
     56 H21        -6.2165   -6.7491   -2.2087 H         1 <0>         0.3937
     57 H22        -3.4793   -2.9749    0.3147 H         1 <0>         0.1391
     58 H23        -4.0495   -2.0162    2.5077 H         1 <0>         0.1622
     59 H24        -2.4548    1.6668    1.4495 H         1 <0>         0.1620
     60 H25        -1.8178    0.8332   -0.7761 H         1 <0>         0.1402
@<TRIPOS>BOND
     1    1    2 1
     2    1   36 1
     3    1   37 1
     4    1   38 1
     5    2    3 2
     6    2    4 2
     7    2    5 1
     8    5    9 1
     9    5    6 1
    10    5   39 1
    11    6   12 1
    12    6    7 1
    13    6   40 1
    14    7    8 1
    15    7   41 1
    16    7   42 1
    17    8    9 1
    18    8   43 1
    19    8   44 1
    20    9   10 1
    21    9   45 1
    22   10   11 1
    23   10   46 1
    24   10   47 1
    25   11   12 1
    26   11   13 1
    27   11   48 1
    28   12   49 1
    29   12   50 1
    30   13   18 1
    31   13   14 2
    32   14   15 1
    33   14   51 1
    34   15   16 2
    35   15   52 1
    36   16   17 1
    37   17   21 2
    38   17   18 1
    39   18   19 1
    40   19   20 2
    41   20   21 1
    42   20   30 1
    43   21   22 1
    44   22   27 ar
    45   22   23 ar
    46   23   24 ar
    47   23   53 1
    48   24   25 ar
    49   24   54 1
    50   25   26 ar
    51   25   29 1
    52   26   27 ar
    53   26   28 1
    54   27   55 1
    55   28   56 1
    56   30   35 ar
    57   30   31 ar
    58   31   32 ar
    59   31   57 1
    60   32   33 ar
    61   32   58 1
    62   33   34 ar
    63   34   35 ar
    64   34   59 1
    65   35   60 1
@<TRIPOS>MOLECULE
CHEMBL246424
   47    50     0     0     0
SMALL
USER_CHARGES

@<TRIPOS>ATOM
      1 C1         -1.4868    1.6485    0.1704 C.3       1 <0>         0.1053
      2 N1         -1.2943    0.1962    0.1787 N.pl3     1 <0>        -0.7020
      3 C2         -2.3837   -0.6470    0.0449 C.ar      1 <0>         0.5643
      4 N2         -3.5931   -0.1240   -0.0951 N.ar      1 <0>        -0.5617
      5 C3         -4.6550   -0.9016   -0.2257 C.ar      1 <0>         0.1955
      6 C4         -4.4906   -2.2780   -0.2148 C.ar      1 <0>        -0.2731
      7 C5         -3.2119   -2.7914   -0.0665 C.ar      1 <0>         0.2023
      8 N3         -2.1919   -1.9578    0.0544 N.ar      1 <0>        -0.5567
      9 C6         -2.9856   -4.2812   -0.0489 C.3       1 <0>         0.1670
     10 N4         -2.6322   -4.7374   -1.3954 N.pl3     1 <0>        -0.7164
     11 C7         -2.3757   -6.0824   -1.6279 C.ar      1 <0>         0.2866
     12 C8         -2.3251   -6.9775   -0.5663 C.ar      1 <0>        -0.2103
     13 C9         -2.0706   -8.3131   -0.7999 C.ar      1 <0>        -0.0324
     14 C10        -1.8637   -8.7729   -2.0910 C.ar      1 <0>        -0.1893
     15 C11        -1.9099   -7.9008   -3.1563 C.ar      1 <0>        -0.0322
     16 C12        -2.1719   -6.5457   -2.9370 C.ar      1 <0>        -0.2350
     17 C13        -2.2283   -5.6079   -4.0729 C.2       1 <0>         0.5766
     18 O1         -2.3512   -4.4150   -3.8710 O.2       1 <0>        -0.5284
     19 N5         -2.1437   -6.0726   -5.3352 N.am      1 <0>        -0.6654
     20 C14        -2.0878   -5.1757   -6.4092 C.ar      1 <0>         0.1729
     21 C15        -2.6715   -5.5098   -7.6240 C.ar      1 <0>        -0.1256
     22 C16        -2.6172   -4.6259   -8.6845 C.ar      1 <0>        -0.0577
     23 C17        -1.9809   -3.4037   -8.5391 C.ar      1 <0>         0.0082
     24 C18        -1.3948   -3.0654   -7.3216 C.ar      1 <0>         0.0505
     25 C19        -1.4539   -3.9500   -6.2577 C.ar      1 <0>        -0.0888
     26 O2         -0.8392   -1.8236   -7.4349 O.3       1 <0>        -0.2844
     27 C20        -0.7340   -1.5768   -8.8494 C.3       1 <0>         0.5708
     28 O3         -1.7920   -2.3728   -9.4152 O.3       1 <0>        -0.2847
     29 F1         -0.9362   -0.2208   -9.1282 F         1 <0>        -0.1150
     30 F2          0.5099   -1.9987   -9.3309 F         1 <0>        -0.1524
     31 H1         -0.5226    2.1435    0.2864 H         1 <0>         0.0773
     32 H2         -1.9385    1.9498   -0.7747 H         1 <0>         0.0600
     33 H3         -2.1425    1.9328    0.9934 H         1 <0>         0.0601
     34 H4         -0.4034   -0.1744    0.2779 H         1 <0>         0.4158
     35 H5         -5.6383   -0.4695   -0.3391 H         1 <0>         0.1712
     36 H6         -5.3406   -2.9360   -0.3192 H         1 <0>         0.1462
     37 H7         -2.1740   -4.5173    0.6394 H         1 <0>         0.0855
     38 H8         -3.8964   -4.7832    0.2775 H         1 <0>         0.0869
     39 H9         -2.5775   -4.1001   -2.1246 H         1 <0>         0.4213
     40 H10        -2.4849   -6.6272    0.4427 H         1 <0>         0.1307
     41 H11        -2.0320   -9.0048    0.0286 H         1 <0>         0.1287
     42 H12        -1.6648   -9.8204   -2.2628 H         1 <0>         0.1274
     43 H13        -1.7480   -8.2646   -4.1602 H         1 <0>         0.1242
     44 H14        -2.1215   -7.0282   -5.4998 H         1 <0>         0.4181
     45 H15        -3.1681   -6.4618   -7.7402 H         1 <0>         0.1518
     46 H16        -3.0713   -4.8882   -9.6287 H         1 <0>         0.1516
     47 H17        -1.0037   -3.6879   -5.3116 H         1 <0>         0.1550
@<TRIPOS>BOND
     1    1    2 1
     2    1   31 1
     3    1   32 1
     4    1   33 1
     5    2    3 1
     6    2   34 1
     7    3    8 ar
     8    3    4 ar
     9    4    5 ar
    10    5    6 ar
    11    5   35 1
    12    6    7 ar
    13    6   36 1
    14    7    8 ar
    15    7    9 1
    16    9   10 1
    17    9   37 1
    18    9   38 1
    19   10   11 1
    20   10   39 1
    21   11   16 ar
    22   11   12 ar
    23   12   13 ar
    24   12   40 1
    25   13   14 ar
    26   13   41 1
    27   14   15 ar
    28   14   42 1
    29   15   16 ar
    30   15   43 1
    31   16   17 1
    32   17   18 2
    33   17   19 am
    34   19   20 1
    35   19   44 1
    36   20   25 ar
    37   20   21 ar
    38   21   22 ar
    39   21   45 1
    40   22   23 ar
    41   22   46 1
    42   23   28 1
    43   23   24 ar
    44   24   25 ar
    45   24   26 1
    46   25   47 1
    47   26   27 1
    48   27   28 1
    49   27   29 1
    50   27   30 1
@<TRIPOS>MOLECULE
CHEMBL562168
   68    71     0     0     0
SMALL
USER_CHARGES

@<TRIPOS>ATOM
      1 C1         -2.4827   -0.3678    4.4250 C.3       1 <0>        -0.1883
      2 C2         -2.3101   -1.8879    4.4388 C.3       1 <0>        -0.0185
      3 N1         -1.3386   -2.2798    3.4089 N.4       1 <0>        -0.3822
      4 C3         -0.0174   -1.7355    3.7497 C.3       1 <0>        -0.0146
      5 C4          0.9679   -2.0439    2.6205 C.3       1 <0>        -0.1905
      6 C5         -1.2617   -3.7452    3.3405 C.3       1 <0>        -0.0274
      7 C6         -2.6099   -4.3059    2.8836 C.3       1 <0>         0.1026
      8 N2         -2.4980   -5.7544    2.6956 N.am      1 <0>        -0.7371
      9 C7         -3.5690   -6.4664    2.2924 C.2       1 <0>         0.6094
     10 O1         -4.6291   -5.9058    2.0843 O.2       1 <0>        -0.5172
     11 C8         -3.4570   -7.9157    2.1043 C.2       1 <0>        -0.3153
     12 C9         -2.3078   -8.7004    2.3095 C.2       1 <0>         0.1275
     13 N3         -2.5964   -9.9460    2.0394 N.2       1 <0>        -0.2934
     14 N4         -3.9358  -10.0407    1.6473 N.pl3     1 <0>        -0.2954
     15 C10        -4.4813   -8.7891    1.6896 C.2       1 <0>         0.3382
     16 N5         -5.7590   -8.5866    1.3673 N.2       1 <0>        -0.4546
     17 C11        -6.5381   -9.5824    1.0017 C.2       1 <0>         0.2014
     18 C12        -6.0363  -10.8827    0.9438 C.2       1 <0>        -0.2036
     19 C13        -4.7116  -11.1064    1.2670 C.2       1 <0>         0.2532
     20 C14        -4.1456  -12.4702    1.2199 C.ar      1 <0>        -0.0639
     21 C15        -3.7252  -13.0955    2.3961 C.ar      1 <0>        -0.0838
     22 C16        -3.1970  -14.3692    2.3491 C.ar      1 <0>        -0.0942
     23 C17        -3.0817  -15.0308    1.1405 C.ar      1 <0>        -0.1151
     24 C18        -3.4965  -14.4173   -0.0353 C.ar      1 <0>         0.1641
     25 C19        -4.0343  -13.1403    0.0014 C.ar      1 <0>        -0.0791
     26 N6         -3.3766  -15.0912   -1.2561 N.am      1 <0>        -0.6788
     27 C20        -3.0960  -14.4035   -2.3808 C.2       1 <0>         0.7079
     28 O2         -2.8559  -13.2131   -2.3215 O.2       1 <0>        -0.5525
     29 N7         -3.0817  -15.0354   -3.5712 N.am      1 <0>        -0.6781
     30 C21        -2.6869  -14.3470   -4.7243 C.ar      1 <0>         0.1678
     31 C22        -1.6950  -13.3777   -4.6505 C.ar      1 <0>        -0.0756
     32 C23        -1.3074  -12.7000   -5.7895 C.ar      1 <0>        -0.0882
     33 C24        -1.9068  -12.9856   -7.0039 C.ar      1 <0>        -0.0071
     34 C25        -2.8952  -13.9508   -7.0801 C.ar      1 <0>        -0.1549
     35 C26        -3.2823  -14.6359   -5.9448 C.ar      1 <0>        -0.0866
     36 C27        -3.5458  -14.2592   -8.4041 C.3       1 <0>         0.5108
     37 F1         -4.5065  -15.2611   -8.2294 F         1 <0>        -0.1736
     38 F2         -4.1606  -13.1052   -8.9016 F         1 <0>        -0.1670
     39 F3         -2.5742  -14.6976   -9.3102 F         1 <0>        -0.1665
     40 Cl1        -1.4181  -12.1310   -8.4337 Cl        1 <0>        -0.0371
     41 H1         -3.2036   -0.0770    5.1892 H         1 <0>         0.1075
     42 H2         -1.5240    0.1087    4.6298 H         1 <0>         0.0804
     43 H3         -2.8436   -0.0520    3.4462 H         1 <0>         0.0816
     44 H4         -1.9492   -2.2038    5.4176 H         1 <0>         0.1313
     45 H5         -3.2688   -2.3644    4.2340 H         1 <0>         0.1342
     46 H6         -0.0922   -0.6561    3.8820 H         1 <0>         0.1353
     47 H7          0.3358   -2.1913    4.6747 H         1 <0>         0.1303
     48 H8          0.9878   -3.1185    2.4390 H         1 <0>         0.0797
     49 H9          0.6539   -1.5279    1.7132 H         1 <0>         0.0820
     50 H10         1.9641   -1.7050    2.9049 H         1 <0>         0.1072
     51 H11        -0.4878   -4.0356    2.6301 H         1 <0>         0.1395
     52 H12        -1.0181   -4.1426    4.3258 H         1 <0>         0.1380
     53 H13        -3.3662   -4.0949    3.6396 H         1 <0>         0.0893
     54 H14        -2.8974   -3.8384    1.9418 H         1 <0>         0.0870
     55 H15        -1.6531   -6.2012    2.8614 H         1 <0>         0.4032
     56 H16        -1.3457   -8.3340    2.6361 H         1 <0>         0.2012
     57 H17        -7.5699   -9.3921    0.7459 H         1 <0>         0.1930
     58 H18        -6.6727  -11.7023    0.6443 H         1 <0>         0.1776
     59 H19        -3.8133  -12.5819    3.3421 H         1 <0>         0.1265
     60 H20        -2.8722  -14.8510    3.2595 H         1 <0>         0.1396
     61 H21        -2.6674  -16.0277    1.1102 H         1 <0>         0.1365
     62 H22        -4.3621  -12.6640   -0.9108 H         1 <0>         0.1422
     63 H23        -3.4954  -16.0532   -1.2928 H         1 <0>         0.4150
     64 H24        -3.3449  -15.9673   -3.6288 H         1 <0>         0.4159
     65 H25        -1.2274  -13.1540   -3.7030 H         1 <0>         0.1534
     66 H26        -0.5361  -11.9462   -5.7326 H         1 <0>         0.1514
     67 H27        -4.0507  -15.3924   -6.0057 H         1 <0>         0.1535
     68 H28        -1.6316   -1.9163    2.5145 H         1 <0>         0.4251
@<TRIPOS>BOND
     1    1    2 1
     2    1   41 1
     3    1   42 1
     4    1   43 1
     5    2    3 1
     6    2   44 1
     7    2   45 1
     8    3    4 1
     9    3    6 1
    10    3   68 1
    11    4    5 1
    12    4   46 1
    13    4   47 1
    14    5   48 1
    15    5   49 1
    16    5   50 1
    17    6    7 1
    18    6   51 1
    19    6   52 1
    20    7    8 1
    21    7   53 1
    22    7   54 1
    23    8    9 am
    24    8   55 1
    25    9   10 2
    26    9   11 1
    27   11   15 2
    28   11   12 1
    29   12   13 2
    30   12   56 1
    31   13   14 1
    32   14   19 1
    33   14   15 1
    34   15   16 1
    35   16   17 2
    36   17   18 1
    37   17   57 1
    38   18   19 2
    39   18   58 1
    40   19   20 1
    41   20   25 ar
    42   20   21 ar
    43   21   22 ar
    44   21   59 1
    45   22   23 ar
    46   22   60 1
    47   23   24 ar
    48   23   61 1
    49   24   25 ar
    50   24   26 1
    51   25   62 1
    52   26   27 am
    53   26   63 1
    54   27   28 2
    55   27   29 am
    56   29   30 1
    57   29   64 1
    58   30   35 ar
    59   30   31 ar
    60   31   32 ar
    61   31   65 1
    62   32   33 ar
    63   32   66 1
    64   33   34 ar
    65   33   40 1
    66   34   35 ar
    67   34   36 1
    68   35   67 1
    69   36   37 1
    70   36   38 1
    71   36   39 1
@<TRIPOS>MOLECULE
CHEMBL198244
   45    48     0     0     0
SMALL
USER_CHARGES

@<TRIPOS>ATOM
      1 C1         -0.1377    1.3860   -2.0073 C.3       1 <0>        -0.1741
      2 C2         -0.1289   -0.1134   -1.8565 C.2       1 <0>         0.5113
      3 O1          0.7288   -0.7730   -2.4045 O.2       1 <0>        -0.5237
      4 N1         -1.0741   -0.7215   -1.1126 N.am      1 <0>        -0.6766
      5 C3         -1.1262   -2.1186   -1.0531 C.ar      1 <0>         0.1399
      6 C4          0.0497   -2.8592   -1.0674 C.ar      1 <0>        -0.1013
      7 C5          0.0024   -4.2390   -1.0088 C.ar      1 <0>        -0.1060
      8 C6         -1.2132   -4.8898   -0.9361 C.ar      1 <0>        -0.0867
      9 C7         -2.3976   -4.1552   -0.9212 C.ar      1 <0>        -0.0378
     10 C8         -2.3506   -2.7641   -0.9740 C.ar      1 <0>        -0.1190
     11 C9         -3.7045   -4.8527   -0.8436 C.ar      1 <0>         0.1752
     12 C10        -4.8882   -4.1179   -0.8345 C.ar      1 <0>         0.0035
     13 N2         -6.0519   -4.7390   -0.7649 N.ar      1 <0>        -0.3962
     14 C11        -6.0982   -6.0569   -0.7042 C.ar      1 <0>         0.0028
     15 C12        -4.9189   -6.7991   -0.7128 C.ar      1 <0>         0.3515
     16 N3         -3.7485   -6.1809   -0.7881 N.ar      1 <0>        -0.4808
     17 N4         -4.9698   -8.1874   -0.6479 N.pl3     1 <0>        -0.6530
     18 C13        -3.7879   -8.9259   -0.5406 C.ar      1 <0>         0.1674
     19 C14        -2.7017   -8.4028    0.1522 C.ar      1 <0>        -0.1103
     20 C15        -1.5309   -9.1288    0.2607 C.ar      1 <0>        -0.0919
     21 C16        -1.4318  -10.3781   -0.3181 C.ar      1 <0>        -0.1133
     22 C17        -2.5165  -10.9122   -1.0158 C.ar      1 <0>         0.0065
     23 C18        -3.7004  -10.1822   -1.1201 C.ar      1 <0>        -0.1334
     24 C19        -2.4126  -12.2495   -1.6373 C.2       1 <0>        -0.0031
     25 C20        -1.3339  -13.0734   -1.6088 C.2       1 <0>        -0.0189
     26 N5         -1.6555  -14.1833   -2.2900 N.2       1 <0>        -0.4855
     27 C21        -2.8776  -14.0700   -2.7293 C.2       1 <0>         0.1763
     28 O2         -3.3749  -12.8889   -2.3378 O.3       1 <0>        -0.2000
     29 H1          0.6959    1.6925   -2.6393 H         1 <0>         0.0978
     30 H2         -1.0756    1.6995   -2.4657 H         1 <0>         0.0930
     31 H3         -0.0397    1.8504   -1.0261 H         1 <0>         0.0928
     32 H4         -1.7183   -0.1906   -0.6185 H         1 <0>         0.4133
     33 H5          1.0030   -2.3550   -1.1249 H         1 <0>         0.1416
     34 H6          0.9190   -4.8101   -1.0202 H         1 <0>         0.1324
     35 H7         -1.2463   -5.9684   -0.8911 H         1 <0>         0.1366
     36 H8         -3.2653   -2.1903   -0.9579 H         1 <0>         0.1327
     37 H9         -4.8543   -3.0395   -0.8840 H         1 <0>         0.1694
     38 H10        -7.0518   -6.5608   -0.6474 H         1 <0>         0.1692
     39 H11        -5.8255   -8.6433   -0.6771 H         1 <0>         0.4238
     40 H12        -2.7733   -7.4257    0.6068 H         1 <0>         0.1386
     41 H13        -0.6904   -8.7172    0.7997 H         1 <0>         0.1348
     42 H14        -0.5149  -10.9421   -0.2314 H         1 <0>         0.1310
     43 H15        -4.5444  -10.5922   -1.6549 H         1 <0>         0.1299
     44 H16        -0.3890  -12.8718   -1.1260 H         1 <0>         0.1875
     45 H17        -3.4058  -14.8108   -3.3111 H         1 <0>         0.2528
@<TRIPOS>BOND
     1    1    2 1
     2    1   29 1
     3    1   30 1
     4    1   31 1
     5    2    3 2
     6    2    4 am
     7    4    5 1
     8    4   32 1
     9    5   10 ar
    10    5    6 ar
    11    6    7 ar
    12    6   33 1
    13    7    8 ar
    14    7   34 1
    15    8    9 ar
    16    8   35 1
    17    9   10 ar
    18    9   11 1
    19   10   36 1
    20   11   16 ar
    21   11   12 ar
    22   12   13 ar
    23   12   37 1
    24   13   14 ar
    25   14   15 ar
    26   14   38 1
    27   15   16 ar
    28   15   17 1
    29   17   18 1
    30   17   39 1
    31   18   23 ar
    32   18   19 ar
    33   19   20 ar
    34   19   40 1
    35   20   21 ar
    36   20   41 1
    37   21   22 ar
    38   21   42 1
    39   22   23 ar
    40   22   24 1
    41   23   43 1
    42   24   28 1
    43   24   25 2
    44   25   26 1
    45   25   44 1
    46   26   27 2
    47   27   28 1
    48   27   45 1
@<TRIPOS>MOLECULE
CHEMBL1080656
   65    69     0     0     0
SMALL
USER_CHARGES

@<TRIPOS>ATOM
      1 C1         -0.0053    1.3819    0.0194 C.ar      1 <0>        -0.0974
      2 C2          1.1799    2.0890    0.0213 C.ar      1 <0>        -0.0822
      3 C3          2.3990    1.4080    0.0092 C.ar      1 <0>        -0.0579
      4 C4          2.4131    0.0126   -0.0049 C.ar      1 <0>        -0.0817
      5 C5          1.2172   -0.6877   -0.0067 C.ar      1 <0>         0.1419
      6 C6          0.0089   -0.0001    0.0054 C.ar      1 <0>        -0.1179
      7 N1          1.2258   -2.0863   -0.0212 N.am      1 <0>        -0.6674
      8 C7          2.1817   -2.7473   -0.7037 C.2       1 <0>         0.5626
      9 O1          3.0841   -2.1313   -1.2366 O.2       1 <0>        -0.5068
     10 C8          2.1327   -4.2212   -0.8044 C.ar      1 <0>        -0.1386
     11 C9          1.0945   -4.9312   -0.1985 C.ar      1 <0>        -0.0538
     12 C10         1.0545   -6.3064   -0.2967 C.ar      1 <0>        -0.1227
     13 C11         2.0407   -6.9824   -0.9934 C.ar      1 <0>        -0.0417
     14 C12         3.0722   -6.2850   -1.5961 C.ar      1 <0>        -0.1881
     15 C13         3.1210   -4.9087   -1.5105 C.ar      1 <0>        -0.0065
     16 C14         4.1418   -7.0296   -2.3528 C.3       1 <0>         0.5099
     17 F1          3.8768   -8.4024   -2.3052 F         1 <0>        -0.1740
     18 F2          4.1534   -6.6028   -3.6851 F         1 <0>        -0.1724
     19 F3          5.3881   -6.7747   -1.7707 F         1 <0>        -0.1725
     20 C15         3.6693    2.1621    0.0107 C.2       1 <0>         0.2467
     21 C16         4.5377    2.0746    1.0798 C.2       1 <0>        -0.2099
     22 C17         5.7306    2.8007    1.0484 C.2       1 <0>         0.1868
     23 N2          6.0210    3.5572    0.0131 N.2       1 <0>        -0.4601
     24 C18         5.1928    3.6536   -1.0294 C.2       1 <0>         0.2852
     25 N3          4.0114    2.9595   -1.0548 N.pl3     1 <0>        -0.3014
     26 N4          3.3657    3.2490   -2.2613 N.2       1 <0>        -0.2980
     27 C19         4.1033    4.0768   -2.9600 C.2       1 <0>         0.1187
     28 C20         5.2630    4.3742   -2.2318 C.2       1 <0>        -0.1326
     29 C21         6.3273    5.2390   -2.6440 C.1       1 <0>        -0.0910
     30 C22         7.2000    5.9480   -2.9819 C.1       1 <0>        -0.1715
     31 C23         8.2941    6.8369   -3.4055 C.3       1 <0>         0.0016
     32 C24         7.9715    7.4225   -4.7817 C.3       1 <0>        -0.1116
     33 C25         9.1088    8.3465   -5.2221 C.3       1 <0>         0.0542
     34 N5          8.7991    8.9087   -6.5434 N.3       1 <0>        -0.5381
     35 C26         8.7908    7.8598   -7.5735 C.3       1 <0>         0.0134
     36 C27         8.4062    8.4778   -8.9204 C.3       1 <0>         0.0625
     37 O2          9.3175    9.5351   -9.2316 O.3       1 <0>        -0.3860
     38 C28         9.3507   10.5744   -8.2497 C.3       1 <0>         0.0627
     39 C29         9.7449    9.9776   -6.8960 C.3       1 <0>         0.0169
     40 H1         -0.9471    1.9103    0.0333 H         1 <0>         0.1378
     41 H2          1.1645    3.1688    0.0318 H         1 <0>         0.1272
     42 H3          3.3528   -0.5197   -0.0146 H         1 <0>         0.1465
     43 H4         -0.9219   -0.5478    0.0043 H         1 <0>         0.1341
     44 H5          0.5438   -2.5805    0.4600 H         1 <0>         0.4135
     45 H6          0.3246   -4.4049    0.3461 H         1 <0>         0.1375
     46 H7          0.2519   -6.8569    0.1716 H         1 <0>         0.1471
     47 H8          2.0050   -8.0594   -1.0667 H         1 <0>         0.1480
     48 H9          3.9244   -4.3651   -1.9852 H         1 <0>         0.1496
     49 H10         4.2979    1.4530    1.9299 H         1 <0>         0.1715
     50 H11         6.4180    2.7405    1.8793 H         1 <0>         0.1869
     51 H12         3.8540    4.4719   -3.9337 H         1 <0>         0.2046
     52 H13         8.4053    7.6458   -2.6835 H         1 <0>         0.0871
     53 H14         9.2228    6.2691   -3.4609 H         1 <0>         0.0846
     54 H15         7.8604    6.6136   -5.5038 H         1 <0>         0.0669
     55 H16         7.0428    7.9903   -4.7264 H         1 <0>         0.0766
     56 H17         9.2200    9.1554   -4.5000 H         1 <0>         0.0795
     57 H18        10.0375    7.7786   -5.2774 H         1 <0>         0.0383
     58 H19         9.7828    7.4144   -7.6475 H         1 <0>         0.0436
     59 H20         8.0654    7.0918   -7.3051 H         1 <0>         0.0898
     60 H21         8.4542    7.7153   -9.6977 H         1 <0>         0.0983
     61 H22         7.3931    8.8759   -8.8622 H         1 <0>         0.0603
     62 H23        10.0819   11.3280   -8.5419 H         1 <0>         0.0986
     63 H24         8.3652   11.0333   -8.1720 H         1 <0>         0.0603
     64 H25         9.7160   10.7554   -6.1330 H         1 <0>         0.0872
     65 H26        10.7522    9.5660   -6.9591 H         1 <0>         0.0435
@<TRIPOS>BOND
     1    1    6 ar
     2    1    2 ar
     3    1   40 1
     4    2    3 ar
     5    2   41 1
     6    3    4 ar
     7    3   20 1
     8    4    5 ar
     9    4   42 1
    10    5    6 ar
    11    5    7 1
    12    6   43 1
    13    7    8 am
    14    7   44 1
    15    8    9 2
    16    8   10 1
    17   10   15 ar
    18   10   11 ar
    19   11   12 ar
    20   11   45 1
    21   12   13 ar
    22   12   46 1
    23   13   14 ar
    24   13   47 1
    25   14   15 ar
    26   14   16 1
    27   15   48 1
    28   16   17 1
    29   16   18 1
    30   16   19 1
    31   20   25 1
    32   20   21 2
    33   21   22 1
    34   21   49 1
    35   22   23 2
    36   22   50 1
    37   23   24 1
    38   24   28 2
    39   24   25 1
    40   25   26 1
    41   26   27 2
    42   27   28 1
    43   27   51 1
    44   28   29 1
    45   29   30 3
    46   30   31 1
    47   31   32 1
    48   31   52 1
    49   31   53 1
    50   32   33 1
    51   32   54 1
    52   32   55 1
    53   33   34 1
    54   33   56 1
    55   33   57 1
    56   34   39 1
    57   34   35 1
    58   35   36 1
    59   35   58 1
    60   35   59 1
    61   36   37 1
    62   36   60 1
    63   36   61 1
    64   37   38 1
    65   38   39 1
    66   38   62 1
    67   38   63 1
    68   39   64 1
    69   39   65 1
@<TRIPOS>MOLECULE
CHEMBL1080656__1
   66    70     0     0     0
SMALL
USER_CHARGES

@<TRIPOS>ATOM
      1 C1         -0.0053    1.3819    0.0194 C.ar      1 <0>        -0.0965
      2 C2          1.1799    2.0890    0.0213 C.ar      1 <0>        -0.0825
      3 C3          2.3990    1.4080    0.0092 C.ar      1 <0>        -0.0650
      4 C4          2.4131    0.0126   -0.0049 C.ar      1 <0>        -0.0809
      5 C5          1.2172   -0.6877   -0.0067 C.ar      1 <0>         0.1445
      6 C6          0.0089   -0.0001    0.0054 C.ar      1 <0>        -0.1148
      7 N1          1.2258   -2.0863   -0.0212 N.am      1 <0>        -0.6679
      8 C7          2.1817   -2.7473   -0.7037 C.2       1 <0>         0.5653
      9 O1          3.0841   -2.1313   -1.2366 O.2       1 <0>        -0.5102
     10 C8          2.1327   -4.2212   -0.8044 C.ar      1 <0>        -0.1413
     11 C9          1.0945   -4.9312   -0.1985 C.ar      1 <0>        -0.0533
     12 C10         1.0545   -6.3064   -0.2967 C.ar      1 <0>        -0.1216
     13 C11         2.0407   -6.9824   -0.9934 C.ar      1 <0>        -0.0398
     14 C12         3.0722   -6.2850   -1.5961 C.ar      1 <0>        -0.1880
     15 C13         3.1210   -4.9087   -1.5105 C.ar      1 <0>        -0.0065
     16 C14         4.1418   -7.0296   -2.3528 C.3       1 <0>         0.5100
     17 F1          3.8768   -8.4024   -2.3052 F         1 <0>        -0.1729
     18 F2          4.1534   -6.6028   -3.6851 F         1 <0>        -0.1729
     19 F3          5.3881   -6.7747   -1.7707 F         1 <0>        -0.1727
     20 C15         3.6693    2.1621    0.0107 C.2       1 <0>         0.2539
     21 C16         4.5377    2.0746    1.0798 C.2       1 <0>        -0.2073
     22 C17         5.7306    2.8007    1.0484 C.2       1 <0>         0.1971
     23 N2          6.0210    3.5572    0.0131 N.2       1 <0>        -0.4689
     24 C18         5.1928    3.6536   -1.0294 C.2       1 <0>         0.2987
     25 N3          4.0114    2.9595   -1.0548 N.pl3     1 <0>        -0.2992
     26 N4          3.3657    3.2490   -2.2613 N.2       1 <0>        -0.2943
     27 C19         4.1033    4.0768   -2.9600 C.2       1 <0>         0.1229
     28 C20         5.2630    4.3742   -2.2318 C.2       1 <0>        -0.1642
     29 C21         6.3273    5.2390   -2.6440 C.1       1 <0>        -0.0367
     30 C22         7.2000    5.9480   -2.9819 C.1       1 <0>        -0.2227
     31 C23         8.2941    6.8369   -3.4055 C.3       1 <0>         0.0173
     32 C24         7.9715    7.4225   -4.7817 C.3       1 <0>        -0.1458
     33 C25         9.1088    8.3465   -5.2221 C.3       1 <0>        -0.0103
     34 N5          8.7991    8.9087   -6.5434 N.4       1 <0>        -0.3856
     35 C26         8.7684    7.8295   -7.5402 C.3       1 <0>        -0.0490
     36 C27         8.4453    8.4178   -8.9159 C.3       1 <0>         0.0361
     37 O2          9.4216    9.4098   -9.2456 O.3       1 <0>        -0.3571
     38 C28         9.5062   10.4713   -8.2907 C.3       1 <0>         0.0354
     39 C29         9.8312    9.8868   -6.9138 C.3       1 <0>        -0.0434
     40 H1         -0.9471    1.9103    0.0333 H         1 <0>         0.1391
     41 H2          1.1645    3.1688    0.0318 H         1 <0>         0.1264
     42 H3          3.3528   -0.5197   -0.0146 H         1 <0>         0.1470
     43 H4         -0.9219   -0.5478    0.0043 H         1 <0>         0.1361
     44 H5          0.5438   -2.5805    0.4600 H         1 <0>         0.4149
     45 H6          0.3246   -4.4049    0.3461 H         1 <0>         0.1377
     46 H7          0.2519   -6.8569    0.1716 H         1 <0>         0.1482
     47 H8          2.0050   -8.0594   -1.0667 H         1 <0>         0.1491
     48 H9          3.9244   -4.3651   -1.9852 H         1 <0>         0.1488
     49 H10         4.2979    1.4530    1.9299 H         1 <0>         0.1757
     50 H11         6.4180    2.7405    1.8793 H         1 <0>         0.1904
     51 H12         3.8540    4.4719   -3.9337 H         1 <0>         0.2029
     52 H13         8.4053    7.6458   -2.6835 H         1 <0>         0.0936
     53 H14         9.2228    6.2691   -3.4609 H         1 <0>         0.0933
     54 H15         7.8604    6.6136   -5.5038 H         1 <0>         0.0908
     55 H16         7.0428    7.9903   -4.7264 H         1 <0>         0.0914
     56 H17         9.2200    9.1554   -4.5000 H         1 <0>         0.1360
     57 H18        10.0375    7.7786   -5.2774 H         1 <0>         0.1338
     58 H19         9.7407    7.3380   -7.5741 H         1 <0>         0.1400
     59 H20         8.0029    7.1034   -7.2664 H         1 <0>         0.1440
     60 H21         8.4644    7.6255   -9.6642 H         1 <0>         0.1417
     61 H22         7.4558    8.8743   -8.8933 H         1 <0>         0.0810
     62 H23        10.2930   11.1652   -8.5866 H         1 <0>         0.1419
     63 H24         8.5529   10.9982   -8.2467 H         1 <0>         0.0810
     64 H25         9.8547   10.6880   -6.1751 H         1 <0>         0.1431
     65 H26        10.8031    9.3946   -6.9480 H         1 <0>         0.1393
     66 H27         7.8993    9.3643   -6.5128 H         1 <0>         0.4233
@<TRIPOS>BOND
     1    1    6 ar
     2    1    2 ar
     3    1   40 1
     4    2    3 ar
     5    2   41 1
     6    3    4 ar
     7    3   20 1
     8    4    5 ar
     9    4   42 1
    10    5    6 ar
    11    5    7 1
    12    6   43 1
    13    7    8 am
    14    7   44 1
    15    8    9 2
    16    8   10 1
    17   10   15 ar
    18   10   11 ar
    19   11   12 ar
    20   11   45 1
    21   12   13 ar
    22   12   46 1
    23   13   14 ar
    24   13   47 1
    25   14   15 ar
    26   14   16 1
    27   15   48 1
    28   16   17 1
    29   16   18 1
    30   16   19 1
    31   20   25 1
    32   20   21 2
    33   21   22 1
    34   21   49 1
    35   22   23 2
    36   22   50 1
    37   23   24 1
    38   24   28 2
    39   24   25 1
    40   25   26 1
    41   26   27 2
    42   27   28 1
    43   27   51 1
    44   28   29 1
    45   29   30 3
    46   30   31 1
    47   31   32 1
    48   31   52 1
    49   31   53 1
    50   32   33 1
    51   32   54 1
    52   32   55 1
    53   33   34 1
    54   33   56 1
    55   33   57 1
    56   34   39 1
    57   34   35 1
    58   34   66 1
    59   35   36 1
    60   35   58 1
    61   35   59 1
    62   36   37 1
    63   36   60 1
    64   36   61 1
    65   37   38 1
    66   38   39 1
    67   38   62 1
    68   38   63 1
    69   39   64 1
    70   39   65 1
@<TRIPOS>MOLECULE
CHEMBL200783
   42    45     0     0     0
SMALL
USER_CHARGES

@<TRIPOS>ATOM
      1 C1          0.0141    1.3599    0.5771 C.ar      1 <0>        -0.1066
      2 C2          1.1855    2.0789    0.4191 C.ar      1 <0>        -0.1164
      3 C3          2.3867    1.4197    0.2580 C.ar      1 <0>        -0.0747
      4 C4          2.4184    0.0243    0.2546 C.ar      1 <0>        -0.0215
      5 C5          1.2330   -0.6950    0.4146 C.ar      1 <0>        -0.1097
      6 C6          0.0385   -0.0235    0.5747 C.ar      1 <0>        -0.1156
      7 C7          3.7019   -0.6887    0.0820 C.2       1 <0>         0.2652
      8 N1          3.8563   -2.0449    0.0566 N.pl3     1 <0>        -0.5512
      9 H1          3.1525   -2.7063    0.1470 H         1 <0>         0.4249
     10 C8          5.1962   -2.2980   -0.1218 C.2       1 <0>         0.0442
     11 C9          5.8205   -1.0622   -0.2000 C.2       1 <0>         0.0622
     12 N2          4.8741   -0.1181   -0.0769 N.2       1 <0>        -0.4522
     13 C10         7.2698   -0.8264   -0.3904 C.ar      1 <0>         0.0414
     14 C11         8.0082   -1.5875   -1.3034 C.ar      1 <0>        -0.1538
     15 C12         9.3559   -1.3340   -1.4495 C.ar      1 <0>         0.1014
     16 N3          9.9483   -0.3899   -0.7429 N.ar      1 <0>        -0.4839
     17 C13         9.2891    0.3502    0.1283 C.ar      1 <0>         0.1001
     18 C14         7.9377    0.1676    0.3335 C.ar      1 <0>        -0.1469
     19 C15         5.8409   -3.6206   -0.2116 C.ar      1 <0>        -0.0069
     20 C16         6.9909   -3.8905    0.5377 C.ar      1 <0>        -0.0897
     21 C17         7.5879   -5.1161    0.4546 C.ar      1 <0>        -0.0788
     22 C18         7.0495   -6.1011   -0.3792 C.ar      1 <0>        -0.0500
     23 C19         5.8999   -5.8315   -1.1283 C.ar      1 <0>        -0.0751
     24 C20         5.2996   -4.6079   -1.0416 C.ar      1 <0>        -0.1113
     25 C21         7.6944   -7.4239   -0.4690 C.2       1 <0>         0.1421
     26 N4          7.1962   -8.3358   -1.2409 N.2       1 <0>        -0.3297
     27 O1          7.8155   -9.6062   -1.3271 O.3       1 <0>        -0.4069
     28 H2         -0.9230    1.8807    0.7074 H         1 <0>         0.1278
     29 H3          1.1596    3.1586    0.4215 H         1 <0>         0.1312
     30 H4          3.3004    1.9821    0.1344 H         1 <0>         0.1382
     31 H5          1.2507   -1.7749    0.4125 H         1 <0>         0.1176
     32 H6         -0.8794   -0.5789    0.6985 H         1 <0>         0.1290
     33 H7          7.5300   -2.3619   -1.8847 H         1 <0>         0.1331
     34 H8          9.9344   -1.9164   -2.1514 H         1 <0>         0.1571
     35 H9          9.8143    1.1122    0.6852 H         1 <0>         0.1582
     36 H10         7.4036    0.7801    1.0448 H         1 <0>         0.1380
     37 H11         7.4070   -3.1297    1.1814 H         1 <0>         0.1318
     38 H12         8.4760   -5.3244    1.0328 H         1 <0>         0.1375
     39 H13         5.4846   -6.5923   -1.7725 H         1 <0>         0.1375
     40 H14         4.4094   -4.4011   -1.6171 H         1 <0>         0.1267
     41 H15         8.5825   -7.6321    0.1092 H         1 <0>         0.1273
     42 H16         7.3718  -10.2201   -1.9283 H         1 <0>         0.4085
@<TRIPOS>BOND
     1    1    6 ar
     2    1    2 ar
     3    1   28 1
     4    2    3 ar
     5    2   29 1
     6    3    4 ar
     7    3   30 1
     8    4    5 ar
     9    4    7 1
    10    5    6 ar
    11    5   31 1
    12    6   32 1
    13    7   12 2
    14    7    8 1
    15    8    9 1
    16    8   10 1
    17   10   11 2
    18   10   19 1
    19   11   12 1
    20   11   13 1
    21   13   18 ar
    22   13   14 ar
    23   14   15 ar
    24   14   33 1
    25   15   16 ar
    26   15   34 1
    27   16   17 ar
    28   17   18 ar
    29   17   35 1
    30   18   36 1
    31   19   24 ar
    32   19   20 ar
    33   20   21 ar
    34   20   37 1
    35   21   22 ar
    36   21   38 1
    37   22   23 ar
    38   22   25 1
    39   23   24 ar
    40   23   39 1
    41   24   40 1
    42   25   26 2
    43   25   41 1
    44   26   27 1
    45   27   42 1
@<TRIPOS>MOLECULE
CHEMBL200783__1
   42    45     0     0     0
SMALL
USER_CHARGES

@<TRIPOS>ATOM
      1 C1         -0.0167    1.3794    0.0096 C.ar      1 <0>        -0.1060
      2 C2          1.1684    2.0934    0.0021 C.ar      1 <0>        -0.1165
      3 C3          2.3774    1.4292   -0.0134 C.ar      1 <0>        -0.0738
      4 C4          2.4034    0.0337   -0.0211 C.ar      1 <0>        -0.0227
      5 C5          1.2043   -0.6806   -0.0130 C.ar      1 <0>        -0.1094
      6 C6          0.0021   -0.0041    0.0020 C.ar      1 <0>        -0.1158
      7 C7          3.6955   -0.6847   -0.0382 C.2       1 <0>         0.2699
      8 N1          4.8809   -0.1189   -0.0469 N.2       1 <0>        -0.4548
      9 H1          3.1337   -2.6991   -0.0334 H         1 <0>         0.4244
     10 C8          5.8313   -1.0668   -0.0614 C.2       1 <0>         0.0765
     11 C9          5.1970   -2.2997   -0.0617 C.2       1 <0>         0.0292
     12 N2          3.8460   -2.0408   -0.0415 N.pl3     1 <0>        -0.5504
     13 C10         5.8427   -3.6258   -0.0752 C.ar      1 <0>         0.0249
     14 C11         6.9177   -3.8952   -0.9334 C.ar      1 <0>        -0.1428
     15 C12         7.4909   -5.1487   -0.9125 C.ar      1 <0>         0.1072
     16 N3          7.0405   -6.0869   -0.1007 N.ar      1 <0>        -0.4796
     17 C13         6.0311   -5.8761    0.7232 C.ar      1 <0>         0.1067
     18 C14         5.4023   -4.6505    0.7738 C.ar      1 <0>        -0.1666
     19 C15         7.2935   -0.8372   -0.0754 C.ar      1 <0>         0.0107
     20 C16         8.1441   -1.7145    0.6001 C.ar      1 <0>        -0.1056
     21 C17         9.5035   -1.5014    0.5879 C.ar      1 <0>        -0.0828
     22 C18        10.0328   -0.4066   -0.1013 C.ar      1 <0>        -0.0570
     23 C19         9.1806    0.4710   -0.7777 C.ar      1 <0>        -0.0781
     24 C20         7.8219    0.2536   -0.7689 C.ar      1 <0>        -0.0940
     25 C21        11.4896   -0.1772   -0.1145 C.2       1 <0>         0.1451
     26 N4         11.9793    0.8366   -0.7527 N.2       1 <0>        -0.3314
     27 O1         13.3780    1.0569   -0.7653 O.3       1 <0>        -0.4099
     28 H2         -0.9605    1.9041    0.0260 H         1 <0>         0.1279
     29 H3          1.1469    3.1732    0.0081 H         1 <0>         0.1314
     30 H4          3.3017    1.9877   -0.0199 H         1 <0>         0.1388
     31 H5          1.2176   -1.7605   -0.0192 H         1 <0>         0.1174
     32 H6         -0.9265   -0.5556    0.0082 H         1 <0>         0.1291
     33 H7          7.2910   -3.1326   -1.6008 H         1 <0>         0.1408
     34 H8          8.3197   -5.3662   -1.5699 H         1 <0>         0.1622
     35 H9          5.6959   -6.6737    1.3697 H         1 <0>         0.1603
     36 H10         4.5799   -4.4838    1.4537 H         1 <0>         0.1335
     37 H11         7.7350   -2.5604    1.1325 H         1 <0>         0.1259
     38 H12        10.1613   -2.1797    1.1110 H         1 <0>         0.1333
     39 H13         9.5888    1.3174   -1.3101 H         1 <0>         0.1359
     40 H14         7.1636    0.9290   -1.2951 H         1 <0>         0.1334
     41 H15        12.1478   -0.8552    0.4085 H         1 <0>         0.1250
     42 H16        13.6487    1.8378   -1.2673 H         1 <0>         0.4075
@<TRIPOS>BOND
     1    1    6 ar
     2    1    2 ar
     3    1   28 1
     4    2    3 ar
     5    2   29 1
     6    3    4 ar
     7    3   30 1
     8    4    5 ar
     9    4    7 1
    10    5    6 ar
    11    5   31 1
    12    6   32 1
    13    7    8 2
    14    7   12 1
    15    8   10 1
    16    9   12 1
    17   10   19 1
    18   10   11 2
    19   11   13 1
    20   11   12 1
    21   13   18 ar
    22   13   14 ar
    23   14   15 ar
    24   14   33 1
    25   15   16 ar
    26   15   34 1
    27   16   17 ar
    28   17   18 ar
    29   17   35 1
    30   18   36 1
    31   19   24 ar
    32   19   20 ar
    33   20   21 ar
    34   20   37 1
    35   21   22 ar
    36   21   38 1
    37   22   23 ar
    38   22   25 1
    39   23   24 ar
    40   23   39 1
    41   24   40 1
    42   25   26 2
    43   25   41 1
    44   26   27 1
    45   27   42 1
@<TRIPOS>MOLECULE
CHEMBL558752
   53    57     0     0     0
SMALL
USER_CHARGES

@<TRIPOS>ATOM
      1 C1          0.0890    1.3306    0.4873 C.3       1 <0>         0.0749
      2 N1          0.4081   -0.0534    0.1284 N.pl3     1 <0>        -0.5085
      3 C2          0.3528   -0.6077   -1.1416 C.ar      1 <0>         0.0507
      4 C3          0.0137   -0.1123   -2.3916 C.ar      1 <0>        -0.0838
      5 C4          0.0591   -0.9388   -3.4947 C.ar      1 <0>        -0.1077
      6 C5          0.4436   -2.2696   -3.3617 C.ar      1 <0>         0.0751
      7 C6          0.7843   -2.7778   -2.1231 C.ar      1 <0>        -0.0835
      8 C7          0.7420   -1.9496   -0.9988 C.ar      1 <0>         0.0911
      9 N2          1.0108   -2.1503    0.3180 N.2       1 <0>        -0.5208
     10 C8          0.8212   -1.0367    0.9810 C.2       1 <0>         0.5369
     11 N3          1.0073   -0.8814    2.3399 N.pl3     1 <0>        -0.6412
     12 C9          1.5328   -1.9319    3.0980 C.ar      1 <0>         0.2053
     13 C10         2.3998   -2.8463    2.5135 C.ar      1 <0>        -0.1275
     14 C11         2.9176   -3.8826    3.2654 C.ar      1 <0>        -0.0424
     15 C12         2.5735   -4.0107    4.5987 C.ar      1 <0>        -0.2053
     16 C13         1.7106   -3.1021    5.1837 C.ar      1 <0>        -0.0432
     17 C14         1.1938   -2.0602    4.4389 C.ar      1 <0>        -0.1549
     18 C15         3.1396   -5.1433    5.4158 C.3       1 <0>         0.5100
     19 F1          4.3412   -4.7372    6.0062 F         1 <0>        -0.1771
     20 F2          2.2267   -5.5000    6.4140 F         1 <0>        -0.1778
     21 F3          3.3767   -6.2442    4.5857 F         1 <0>        -0.1766
     22 O1          0.4838   -3.0743   -4.4569 O.3       1 <0>        -0.2390
     23 C16        -0.5198   -3.9726   -4.6248 C.ar      1 <0>         0.1693
     24 C17        -1.5519   -4.0724   -3.6928 C.ar      1 <0>        -0.2330
     25 C18        -2.5577   -4.9965   -3.8940 C.ar      1 <0>         0.1462
     26 N4         -2.5549   -5.7828   -4.9518 N.ar      1 <0>        -0.5008
     27 C19        -1.5918   -5.7224   -5.8653 C.ar      1 <0>         0.2185
     28 C20        -0.5464   -4.8114   -5.7333 C.ar      1 <0>        -0.1453
     29 C21        -1.6332   -6.6264   -7.0353 C.2       1 <0>         0.2951
     30 N5         -2.5993   -7.5546   -7.2938 N.pl3     1 <0>        -0.5196
     31 H1         -3.3797   -7.7419   -6.7491 H         1 <0>         0.4364
     32 C22        -2.2593   -8.1700   -8.4662 C.2       1 <0>        -0.1211
     33 C23        -1.1072   -7.6076   -8.8883 C.2       1 <0>         0.0664
     34 N6         -0.7487   -6.6689   -8.0066 N.2       1 <0>        -0.4582
     35 C24        -3.0256   -9.2688   -9.1565 C.3       1 <0>         0.5516
     36 F4         -3.9502   -8.7065  -10.0431 F         1 <0>        -0.1675
     37 F5         -2.1361  -10.0835   -9.8651 F         1 <0>        -0.1592
     38 F6         -3.7018  -10.0363   -8.2021 F         1 <0>        -0.1759
     39 H2          0.9883    1.9420    0.4122 H         1 <0>         0.0804
     40 H3         -0.6705    1.7164   -0.1926 H         1 <0>         0.0932
     41 H4         -0.2881    1.3632    1.5095 H         1 <0>         0.0841
     42 H5         -0.2858    0.9195   -2.5011 H         1 <0>         0.1337
     43 H6         -0.2058   -0.5511   -4.4673 H         1 <0>         0.1432
     44 H7          1.0819   -3.8113   -2.0243 H         1 <0>         0.1405
     45 H8          0.7733   -0.0434    2.7688 H         1 <0>         0.4223
     46 H9          2.6684   -2.7473    1.4722 H         1 <0>         0.1551
     47 H10         3.5917   -4.5939    2.8116 H         1 <0>         0.1402
     48 H11         1.4439   -3.2049    6.2251 H         1 <0>         0.1410
     49 H12         0.5234   -1.3483    4.8975 H         1 <0>         0.1374
     50 H13        -1.5643   -3.4335   -2.8221 H         1 <0>         0.1469
     51 H14        -3.3584   -5.0766   -3.1737 H         1 <0>         0.1687
     52 H15         0.2337   -4.7602   -6.4784 H         1 <0>         0.1618
     53 H16        -0.5687   -7.8687   -9.7873 H         1 <0>         0.1936
@<TRIPOS>BOND
     1    1    2 1
     2    1   39 1
     3    1   40 1
     4    1   41 1
     5    2   10 1
     6    2    3 1
     7    3    8 ar
     8    3    4 ar
     9    4    5 ar
    10    4   42 1
    11    5    6 ar
    12    5   43 1
    13    6    7 ar
    14    6   22 1
    15    7    8 ar
    16    7   44 1
    17    8    9 1
    18    9   10 2
    19   10   11 1
    20   11   12 1
    21   11   45 1
    22   12   17 ar
    23   12   13 ar
    24   13   14 ar
    25   13   46 1
    26   14   15 ar
    27   14   47 1
    28   15   16 ar
    29   15   18 1
    30   16   17 ar
    31   16   48 1
    32   17   49 1
    33   18   19 1
    34   18   20 1
    35   18   21 1
    36   22   23 1
    37   23   28 ar
    38   23   24 ar
    39   24   25 ar
    40   24   50 1
    41   25   26 ar
    42   25   51 1
    43   26   27 ar
    44   27   28 ar
    45   27   29 1
    46   28   52 1
    47   29   34 2
    48   29   30 1
    49   30   31 1
    50   30   32 1
    51   32   33 2
    52   32   35 1
    53   33   34 1
    54   33   53 1
    55   35   36 1
    56   35   37 1
    57   35   38 1
@<TRIPOS>MOLECULE
CHEMBL558752__1
   53    57     0     0     0
SMALL
USER_CHARGES

@<TRIPOS>ATOM
      1 C1          0.0889    1.3304    0.4875 C.3       1 <0>         0.0749
      2 N1          0.4081   -0.0537    0.1285 N.pl3     1 <0>        -0.5086
      3 C2          0.3527   -0.6079   -1.1416 C.ar      1 <0>         0.0506
      4 C3          0.0140   -0.1123   -2.3916 C.ar      1 <0>        -0.0839
      5 C4          0.0596   -0.9387   -3.4948 C.ar      1 <0>        -0.1078
      6 C5          0.4437   -2.2696   -3.3617 C.ar      1 <0>         0.0757
      7 C6          0.7841   -2.7780   -2.1232 C.ar      1 <0>        -0.0835
      8 C7          0.7419   -1.9497   -0.9988 C.ar      1 <0>         0.0911
      9 N2          1.0107   -2.1505    0.3179 N.2       1 <0>        -0.5208
     10 C8          0.8211   -1.0370    0.9810 C.2       1 <0>         0.5367
     11 N3          1.0071   -0.8817    2.3399 N.pl3     1 <0>        -0.6412
     12 C9          1.5327   -1.9323    3.0980 C.ar      1 <0>         0.2054
     13 C10         2.3996   -2.8467    2.5135 C.ar      1 <0>        -0.1275
     14 C11         2.9174   -3.8830    3.2654 C.ar      1 <0>        -0.0424
     15 C12         2.5732   -4.0112    4.5986 C.ar      1 <0>        -0.2054
     16 C13         1.7104   -3.1025    5.1836 C.ar      1 <0>        -0.0433
     17 C14         1.1936   -2.0606    4.4389 C.ar      1 <0>        -0.1550
     18 C15         3.1394   -5.1438    5.4157 C.3       1 <0>         0.5100
     19 F1          4.3409   -4.7378    6.0061 F         1 <0>        -0.1770
     20 F2          2.2264   -5.5006    6.4139 F         1 <0>        -0.1779
     21 F3          3.3764   -6.2447    4.5855 F         1 <0>        -0.1766
     22 O1          0.4838   -3.0743   -4.4569 O.3       1 <0>        -0.2393
     23 C16        -0.5201   -3.9723   -4.6250 C.ar      1 <0>         0.1705
     24 C17        -1.5524   -4.0718   -3.6931 C.ar      1 <0>        -0.2358
     25 C18        -2.5584   -4.9956   -3.8944 C.ar      1 <0>         0.1462
     26 N4         -2.5556   -5.7821   -4.9520 N.ar      1 <0>        -0.5024
     27 C19        -1.5923   -5.7220   -5.8654 C.ar      1 <0>         0.2250
     28 C20        -0.5469   -4.8111   -5.7335 C.ar      1 <0>        -0.1498
     29 C21        -1.6337   -6.6263   -7.0352 C.2       1 <0>         0.2675
     30 N5         -0.7486   -6.6697   -8.0059 N.2       1 <0>        -0.4231
     31 H1         -3.3697   -7.7554   -6.7387 H         1 <0>         0.4388
     32 C22        -1.1086   -7.6064   -8.8890 C.2       1 <0>        -0.0925
     33 C23        -2.2574   -8.1732   -8.4636 C.2       1 <0>         0.0426
     34 N6         -2.5940   -7.5620   -7.2880 N.pl3     1 <0>        -0.5345
     35 C24        -0.3597   -7.9678  -10.1459 C.3       1 <0>         0.5560
     36 F4          0.8402   -7.2503  -10.1963 F         1 <0>        -0.1637
     37 F5         -0.0835   -9.3392  -10.1461 F         1 <0>        -0.1724
     38 F6         -1.1408   -7.6492  -11.2620 F         1 <0>        -0.1726
     39 H2          0.9882    1.9418    0.4124 H         1 <0>         0.0803
     40 H3         -0.6706    1.7162   -0.1925 H         1 <0>         0.0932
     41 H4         -0.2882    1.3629    1.5096 H         1 <0>         0.0840
     42 H5         -0.2856    0.9195   -2.5011 H         1 <0>         0.1336
     43 H6         -0.2047   -0.5508   -4.4675 H         1 <0>         0.1432
     44 H7          1.0813   -3.8116   -2.0244 H         1 <0>         0.1404
     45 H8          0.7732   -0.0438    2.7688 H         1 <0>         0.4222
     46 H9          2.6683   -2.7476    1.4722 H         1 <0>         0.1551
     47 H10         3.5915   -4.5943    2.8115 H         1 <0>         0.1402
     48 H11         1.4436   -3.2055    6.2251 H         1 <0>         0.1410
     49 H12         0.5233   -1.3487    4.8975 H         1 <0>         0.1373
     50 H13        -1.5646   -3.4329   -2.8224 H         1 <0>         0.1462
     51 H14        -3.3595   -5.0751   -3.1745 H         1 <0>         0.1681
     52 H15         0.2333   -4.7601   -6.4786 H         1 <0>         0.1604
     53 H16        -2.8052   -8.9625   -8.9568 H         1 <0>         0.2004
@<TRIPOS>BOND
     1    1    2 1
     2    1   39 1
     3    1   40 1
     4    1   41 1
     5    2   10 1
     6    2    3 1
     7    3    8 ar
     8    3    4 ar
     9    4    5 ar
    10    4   42 1
    11    5    6 ar
    12    5   43 1
    13    6    7 ar
    14    6   22 1
    15    7    8 ar
    16    7   44 1
    17    8    9 1
    18    9   10 2
    19   10   11 1
    20   11   12 1
    21   11   45 1
    22   12   17 ar
    23   12   13 ar
    24   13   14 ar
    25   13   46 1
    26   14   15 ar
    27   14   47 1
    28   15   16 ar
    29   15   18 1
    30   16   17 ar
    31   16   48 1
    32   17   49 1
    33   18   19 1
    34   18   20 1
    35   18   21 1
    36   22   23 1
    37   23   28 ar
    38   23   24 ar
    39   24   25 ar
    40   24   50 1
    41   25   26 ar
    42   25   51 1
    43   26   27 ar
    44   27   28 ar
    45   27   29 1
    46   28   52 1
    47   29   30 2
    48   29   34 1
    49   30   32 1
    50   31   34 1
    51   32   35 1
    52   32   33 2
    53   33   53 1
    54   33   34 1
    55   35   36 1
    56   35   37 1
    57   35   38 1
@<TRIPOS>MOLECULE
CHEMBL1093105
   54    58     0     0     0
SMALL
USER_CHARGES

@<TRIPOS>ATOM
      1 C1         -0.0053    1.3819    0.0194 C.ar      1 <0>        -0.0986
      2 C2          1.1799    2.0889    0.0213 C.ar      1 <0>        -0.0827
      3 C3          2.3990    1.4080    0.0091 C.ar      1 <0>        -0.0529
      4 C4          2.4131    0.0128   -0.0050 C.ar      1 <0>        -0.0824
      5 C5          1.2172   -0.6876   -0.0068 C.ar      1 <0>         0.1412
      6 C6          0.0089   -0.0001    0.0054 C.ar      1 <0>        -0.1204
      7 N1          1.2259   -2.0862   -0.0214 N.am      1 <0>        -0.6674
      8 C7          2.1818   -2.7471   -0.7040 C.2       1 <0>         0.5620
      9 O1          3.0842   -2.1311   -1.2368 O.2       1 <0>        -0.5062
     10 C8          2.1329   -4.2210   -0.8047 C.ar      1 <0>        -0.1382
     11 C9          1.0947   -4.9311   -0.1989 C.ar      1 <0>        -0.0540
     12 C10         1.0548   -6.3064   -0.2971 C.ar      1 <0>        -0.1228
     13 C11         2.0408   -6.9822   -0.9943 C.ar      1 <0>        -0.0420
     14 C12         3.0722   -6.2847   -1.5970 C.ar      1 <0>        -0.1881
     15 C13         3.1212   -4.9085   -1.5109 C.ar      1 <0>        -0.0067
     16 C14         4.1419   -7.0291   -2.3538 C.3       1 <0>         0.5100
     17 F1          3.8770   -8.4020   -2.3062 F         1 <0>        -0.1742
     18 F2          4.1534   -6.6024   -3.6860 F         1 <0>        -0.1724
     19 F3          5.3882   -6.7742   -1.7716 F         1 <0>        -0.1724
     20 C15         3.6694    2.1622    0.0106 C.2       1 <0>         0.2526
     21 C16         4.5376    2.0745    1.0798 C.2       1 <0>        -0.2278
     22 C17         5.7310    2.8003    1.0495 C.2       1 <0>         0.1892
     23 N2          6.0231    3.5573    0.0164 N.2       1 <0>        -0.4750
     24 C18         5.1929    3.6549   -1.0303 C.2       1 <0>         0.2868
     25 N3          4.0108    2.9588   -1.0539 N.pl3     1 <0>        -0.2955
     26 N4          3.3665    3.2498   -2.2614 N.2       1 <0>        -0.3533
     27 C19         4.1180    4.0824   -2.9540 C.2       1 <0>         0.3833
     28 C20         5.2660    4.3692   -2.2185 C.2       1 <0>        -0.3090
     29 N5          3.8084    4.6016   -4.2142 N.pl3     1 <0>        -0.5993
     30 C21         2.5071    4.3316   -4.8458 C.3       1 <0>         0.0953
     31 C22         1.9058    5.6654   -5.3034 C.3       1 <0>         0.0471
     32 O2          2.8648    6.3656   -6.0995 O.3       1 <0>        -0.3787
     33 C23         4.0623    6.7148   -5.4010 C.3       1 <0>         0.0462
     34 C24         4.7718    5.4394   -4.9459 C.3       1 <0>         0.0979
     35 H1         -0.9471    1.9103    0.0333 H         1 <0>         0.1362
     36 H2          1.1646    3.1688    0.0319 H         1 <0>         0.1258
     37 H3          3.3528   -0.5195   -0.0148 H         1 <0>         0.1458
     38 H4         -0.9219   -0.5478    0.0044 H         1 <0>         0.1328
     39 H5          0.5439   -2.5805    0.4598 H         1 <0>         0.4130
     40 H6          0.3248   -4.4049    0.3458 H         1 <0>         0.1375
     41 H7          0.2525   -6.8569    0.1714 H         1 <0>         0.1469
     42 H8          2.0050   -8.0591   -1.0679 H         1 <0>         0.1478
     43 H9          3.9245   -4.3647   -1.9856 H         1 <0>         0.1495
     44 H10         4.2972    1.4528    1.9295 H         1 <0>         0.1665
     45 H11         6.4176    2.7389    1.8809 H         1 <0>         0.1823
     46 H12         6.0722    5.0202   -2.5228 H         1 <0>         0.1593
     47 H13         2.6454    3.6769   -5.7062 H         1 <0>         0.0718
     48 H14         1.8410    3.8565   -4.1256 H         1 <0>         0.0951
     49 H15         1.0097    5.4770   -5.8948 H         1 <0>         0.1066
     50 H16         1.6478    6.2667   -4.4316 H         1 <0>         0.0555
     51 H17         4.7177    7.2813   -6.0625 H         1 <0>         0.1089
     52 H18         3.8121    7.3198   -4.5295 H         1 <0>         0.0568
     53 H19         5.6048    5.6974   -4.2919 H         1 <0>         0.0947
     54 H20         5.1421    4.8980   -5.8165 H         1 <0>         0.0756
@<TRIPOS>BOND
     1    1    6 ar
     2    1    2 ar
     3    1   35 1
     4    2    3 ar
     5    2   36 1
     6    3    4 ar
     7    3   20 1
     8    4    5 ar
     9    4   37 1
    10    5    6 ar
    11    5    7 1
    12    6   38 1
    13    7    8 am
    14    7   39 1
    15    8    9 2
    16    8   10 1
    17   10   15 ar
    18   10   11 ar
    19   11   12 ar
    20   11   40 1
    21   12   13 ar
    22   12   41 1
    23   13   14 ar
    24   13   42 1
    25   14   15 ar
    26   14   16 1
    27   15   43 1
    28   16   17 1
    29   16   18 1
    30   16   19 1
    31   20   25 1
    32   20   21 2
    33   21   22 1
    34   21   44 1
    35   22   23 2
    36   22   45 1
    37   23   24 1
    38   24   28 2
    39   24   25 1
    40   25   26 1
    41   26   27 2
    42   27   28 1
    43   27   29 1
    44   28   46 1
    45   29   34 1
    46   29   30 1
    47   30   31 1
    48   30   47 1
    49   30   48 1
    50   31   32 1
    51   31   49 1
    52   31   50 1
    53   32   33 1
    54   33   34 1
    55   33   51 1
    56   33   52 1
    57   34   53 1
    58   34   54 1
@<TRIPOS>MOLECULE
CHEMBL583340
   66    72     0     0     0
SMALL
USER_CHARGES

@<TRIPOS>ATOM
      1 C1         -5.6728    3.0706   -5.0581 C.3       1 <0>        -0.1518
      2 C2         -5.0122    2.7309   -3.7205 C.3       1 <0>         0.0796
      3 O1         -5.4830    1.4607   -3.2657 O.3       1 <0>        -0.3643
      4 C3         -4.9952    1.0119   -2.0938 C.2       1 <0>         0.6695
      5 O2         -4.1918    1.6805   -1.4741 O.2       1 <0>        -0.5685
      6 N1         -5.3981   -0.1790   -1.6079 N.am      1 <0>        -0.6023
      7 C4         -6.3559   -1.1383   -2.2091 C.3       1 <0>         0.1366
      8 C5         -7.2075   -1.6255   -1.0142 C.3       1 <0>        -0.1943
      9 C6         -6.3022   -1.4284    0.2198 C.3       1 <0>        -0.2218
     10 C7         -4.9838   -0.8435   -0.3486 C.3       1 <0>         0.1686
     11 C8         -4.0707   -2.0190   -0.7319 C.3       1 <0>        -0.1466
     12 C9         -4.8831   -3.0342   -1.5412 C.3       1 <0>        -0.0515
     13 C10        -5.5405   -2.3348   -2.7249 C.3       1 <0>        -0.1264
     14 C11        -5.9418   -3.6457   -0.6602 C.2       1 <0>         0.2191
     15 C12        -7.0937   -4.1180   -1.1976 C.2       1 <0>        -0.2169
     16 C13        -8.0640   -4.6831   -0.3586 C.2       1 <0>         0.1797
     17 N2         -7.8580   -4.7534    0.9365 N.2       1 <0>        -0.4523
     18 C14        -6.7261   -4.2909    1.4769 C.2       1 <0>         0.2757
     19 N3         -5.7511   -3.7365    0.6890 N.pl3     1 <0>        -0.2848
     20 N4         -4.6898   -3.3510    1.5154 N.2       1 <0>        -0.2912
     21 C15        -4.9815   -3.6540    2.7658 C.2       1 <0>         0.1760
     22 C16        -6.2618   -4.2426    2.7973 C.2       1 <0>        -0.1879
     23 C17        -6.9740   -4.7313    3.9968 C.ar      1 <0>         0.0359
     24 C18        -7.4416   -3.8231    4.9501 C.ar      1 <0>        -0.1024
     25 C19        -8.1023   -4.2763    6.0627 C.ar      1 <0>        -0.0597
     26 C20        -8.3083   -5.6467    6.2431 C.ar      1 <0>        -0.0296
     27 C21        -7.8410   -6.5550    5.2893 C.ar      1 <0>        -0.0776
     28 C22        -7.1846   -6.1012    4.1744 C.ar      1 <0>        -0.1007
     29 C23        -9.0194   -6.1350    7.4416 C.2       1 <0>         0.2147
     30 N5         -9.5135   -5.3971    8.4091 N.2       1 <0>        -0.2774
     31 N6        -10.0628   -6.1608    9.2867 N.2       1 <0>        -0.2870
     32 C24        -9.9426   -7.4055    8.9182 C.2       1 <0>         0.1458
     33 O3         -9.2876   -7.4213    7.7440 O.3       1 <0>        -0.2239
     34 C25        -4.1135   -3.4059    3.9419 C.ar      1 <0>         0.0201
     35 C26        -4.0042   -4.3514    4.9661 C.ar      1 <0>        -0.1382
     36 C27        -3.1851   -4.0800    6.0426 C.ar      1 <0>         0.1043
     37 N7         -2.5118   -2.9476    6.1129 N.ar      1 <0>        -0.4737
     38 C28        -2.5870   -2.0294    5.1685 C.ar      1 <0>         0.1029
     39 C29        -3.3775   -2.2224    4.0544 C.ar      1 <0>        -0.1400
     40 H1         -5.3137    4.0395   -5.4050 H         1 <0>         0.0832
     41 H2         -5.4208    2.3055   -5.7924 H         1 <0>         0.0666
     42 H3         -6.7546    3.1087   -4.9298 H         1 <0>         0.0663
     43 H4         -3.9305    2.6928   -3.8488 H         1 <0>         0.0681
     44 H5         -5.2642    3.4960   -2.9862 H         1 <0>         0.0675
     45 H6         -6.9571   -0.6821   -2.9956 H         1 <0>         0.1087
     46 H7         -8.1116   -1.0236   -0.9219 H         1 <0>         0.0712
     47 H8         -7.4621   -2.6786   -1.1339 H         1 <0>         0.1259
     48 H9         -6.7608   -0.7294    0.9193 H         1 <0>         0.0678
     49 H10        -6.1115   -2.3844    0.7073 H         1 <0>         0.1403
     50 H11        -4.5062   -0.1513    0.3447 H         1 <0>         0.1034
     51 H12        -3.2388   -1.6539   -1.3342 H         1 <0>         0.0799
     52 H13        -3.6887   -2.4943    0.1716 H         1 <0>         0.1246
     53 H14        -4.2210   -3.8180   -1.9089 H         1 <0>         0.1140
     54 H15        -6.2020   -3.0341   -3.2362 H         1 <0>         0.0891
     55 H16        -4.7736   -1.9836   -3.4152 H         1 <0>         0.0898
     56 H17        -7.2621   -4.0589   -2.2627 H         1 <0>         0.1800
     57 H18        -8.9842   -5.0616   -0.7786 H         1 <0>         0.1889
     58 H19        -7.2824   -2.7640    4.8106 H         1 <0>         0.1316
     59 H20        -8.4631   -3.5743    6.7999 H         1 <0>         0.1415
     60 H21        -7.9999   -7.6141    5.4288 H         1 <0>         0.1341
     61 H22        -6.8271   -6.8028    3.4353 H         1 <0>         0.1310
     62 H23       -10.3073   -8.2678    9.4565 H         1 <0>         0.2647
     63 H24        -4.5530   -5.2801    4.9154 H         1 <0>         0.1395
     64 H25        -3.0941   -4.8042    6.8386 H         1 <0>         0.1616
     65 H26        -2.0184   -1.1165    5.2667 H         1 <0>         0.1622
     66 H27        -3.4304   -1.4687    3.2827 H         1 <0>         0.1405
@<TRIPOS>BOND
     1    1    2 1
     2    1   40 1
     3    1   41 1
     4    1   42 1
     5    2    3 1
     6    2   43 1
     7    2   44 1
     8    3    4 1
     9    4    5 2
    10    4    6 am
    11    6   10 1
    12    6    7 1
    13    7   13 1
    14    7    8 1
    15    7   45 1
    16    8    9 1
    17    8   46 1
    18    8   47 1
    19    9   10 1
    20    9   48 1
    21    9   49 1
    22   10   11 1
    23   10   50 1
    24   11   12 1
    25   11   51 1
    26   11   52 1
    27   12   13 1
    28   12   14 1
    29   12   53 1
    30   13   54 1
    31   13   55 1
    32   14   19 1
    33   14   15 2
    34   15   16 1
    35   15   56 1
    36   16   17 2
    37   16   57 1
    38   17   18 1
    39   18   22 2
    40   18   19 1
    41   19   20 1
    42   20   21 2
    43   21   22 1
    44   21   34 1
    45   22   23 1
    46   23   28 ar
    47   23   24 ar
    48   24   25 ar
    49   24   58 1
    50   25   26 ar
    51   25   59 1
    52   26   27 ar
    53   26   29 1
    54   27   28 ar
    55   27   60 1
    56   28   61 1
    57   29   33 1
    58   29   30 2
    59   30   31 1
    60   31   32 2
    61   32   33 1
    62   32   62 1
    63   34   39 ar
    64   34   35 ar
    65   35   36 ar
    66   35   63 1
    67   36   37 ar
    68   36   64 1
    69   37   38 ar
    70   38   39 ar
    71   38   65 1
    72   39   66 1
@<TRIPOS>MOLECULE
CHEMBL571748
   71    78     0     0     0
SMALL
USER_CHARGES

@<TRIPOS>ATOM
      1 C1         -0.2412    4.0934    4.0358 C.ar      1 <0>        -0.0635
      2 C2          1.0588    4.4107    3.6743 C.ar      1 <0>        -0.1396
      3 C3          1.4842    4.2415    2.3631 C.ar      1 <0>         0.0915
      4 C4          0.5805    3.7427    1.3988 C.ar      1 <0>        -0.1607
      5 C5          0.6876    3.4598    0.0188 C.2       1 <0>         0.0796
      6 N1         -0.4587    3.0102   -0.4051 N.2       1 <0>        -0.2463
      7 N2         -1.3720    2.9719    0.6556 N.pl3     1 <0>        -0.5081
      8 H1         -2.2942    2.6759    0.6030 H         1 <0>         0.4408
      9 C6         -0.7346    3.4259    1.7822 C.ar      1 <0>         0.1292
     10 C7         -1.1324    3.6063    3.1053 C.ar      1 <0>        -0.1445
     11 C8          2.8699    4.5807    1.9800 C.2       1 <0>        -0.1921
     12 C9          3.3303    5.8332    1.5258 C.2       1 <0>         0.1694
     13 N3          4.6244    5.7426    1.2857 N.2       1 <0>        -0.2882
     14 N4          5.0554    4.4422    1.5703 N.pl3     1 <0>        -0.2788
     15 C10         3.9747    3.7198    2.0056 C.2       1 <0>         0.2762
     16 N5          4.1082    2.4359    2.3528 N.2       1 <0>        -0.4556
     17 C11         5.2759    1.8384    2.2882 C.2       1 <0>         0.1771
     18 C12         6.4059    2.5436    1.8513 C.2       1 <0>        -0.2163
     19 C13         6.2808    3.8445    1.4900 C.2       1 <0>         0.2248
     20 C14         7.4810    4.6245    1.0187 C.3       1 <0>        -0.0481
     21 C15         7.0248    5.7399    0.0736 C.3       1 <0>        -0.1469
     22 C16         6.4481    5.1059   -1.2023 C.3       1 <0>         0.1298
     23 C17         5.4654    3.9916   -0.7746 C.3       1 <0>        -0.2146
     24 C18         6.3386    2.7259   -0.6453 C.3       1 <0>        -0.1912
     25 C19         7.7669    3.1944   -1.0071 C.3       1 <0>         0.1575
     26 C20         8.4420    3.6860    0.2833 C.3       1 <0>        -0.1247
     27 N6          7.5543    4.3800   -1.8720 N.am      1 <0>        -0.6329
     28 C21         8.2106    4.7176   -2.9998 C.2       1 <0>         0.7513
     29 O1          9.0243    3.9534   -3.4816 O.2       1 <0>        -0.5813
     30 N7          7.9648    5.9024   -3.5935 N.am      1 <0>        -0.6009
     31 C22         7.1091    6.9737   -3.0519 C.3       1 <0>         0.0987
     32 C23         7.6262    8.2712   -3.7219 C.3       1 <0>        -0.1318
     33 C24         7.9775    7.7672   -5.1467 C.3       1 <0>        -0.1096
     34 C25         8.5107    6.3429   -4.8856 C.3       1 <0>         0.0852
     35 H2          9.5998    6.3547   -4.8432 H         1 <0>         0.0658
     36 C26         8.0476    5.4165   -5.9803 C.2       1 <0>         0.4972
     37 O2          6.9721    4.8501   -5.8852 O.co2     1 <0>        -0.6871
     38 O3          8.7484    5.2333   -6.9610 O.co2     1 <0>        -0.6982
     39 C27         2.4996    7.0480    1.3471 C.ar      1 <0>         0.0266
     40 C28         1.1709    6.9534    0.9221 C.ar      1 <0>        -0.1401
     41 C29         0.4333    8.1093    0.7692 C.ar      1 <0>         0.1016
     42 N8          0.9659    9.2904    1.0181 N.ar      1 <0>        -0.4769
     43 C30         2.2152    9.4236    1.4207 C.ar      1 <0>         0.0989
     44 C31         3.0216    8.3193    1.6045 C.ar      1 <0>        -0.1395
     45 H3         -0.5578    4.2255    5.0599 H         1 <0>         0.1307
     46 H4          1.7446    4.7919    4.4164 H         1 <0>         0.1241
     47 H5          1.5731    3.5947   -0.5847 H         1 <0>         0.1851
     48 H6         -2.1421    3.3636    3.4021 H         1 <0>         0.1252
     49 H7          5.3660    0.8005    2.5729 H         1 <0>         0.1854
     50 H8          7.3668    2.0534    1.7977 H         1 <0>         0.1782
     51 H9          7.9887    5.0630    1.8778 H         1 <0>         0.1075
     52 H10         6.2575    6.3409    0.5616 H         1 <0>         0.1167
     53 H11         7.8756    6.3704   -0.1845 H         1 <0>         0.0758
     54 H12         5.9861    5.8462   -1.8554 H         1 <0>         0.1084
     55 H13         5.0075    4.2365    0.1838 H         1 <0>         0.1301
     56 H14         4.6993    3.8480   -1.5366 H         1 <0>         0.0635
     57 H15         6.3105    2.3481    0.3768 H         1 <0>         0.1169
     58 H16         6.0022    1.9596   -1.3436 H         1 <0>         0.0679
     59 H17         8.3444    2.4121   -1.4997 H         1 <0>         0.1034
     60 H18         9.3577    4.2225    0.0347 H         1 <0>         0.0871
     61 H19         8.6779    2.8330    0.9197 H         1 <0>         0.0813
     62 H20         6.0669    6.7983   -3.3188 H         1 <0>         0.0604
     63 H21         7.2189    7.0361   -1.9692 H         1 <0>         0.0713
     64 H22         6.8451    9.0305   -3.7576 H         1 <0>         0.0771
     65 H23         8.5123    8.6482   -3.2113 H         1 <0>         0.0706
     66 H24         7.0883    7.7407   -5.7765 H         1 <0>         0.0735
     67 H25         8.7512    8.3898   -5.5961 H         1 <0>         0.0752
     68 H26         0.7286    5.9899    0.7162 H         1 <0>         0.1415
     69 H27        -0.5937    8.0464    0.4410 H         1 <0>         0.1579
     70 H28         2.6108   10.4100    1.6127 H         1 <0>         0.1603
     71 H29         4.0420    8.4354    1.9387 H         1 <0>         0.1410
@<TRIPOS>BOND
     1    1   10 ar
     2    1    2 ar
     3    1   45 1
     4    2    3 ar
     5    2   46 1
     6    3    4 ar
     7    3   11 1
     8    4    9 ar
     9    4    5 1
    10    5    6 2
    11    5   47 1
    12    6    7 1
    13    7    8 1
    14    7    9 1
    15    9   10 ar
    16   10   48 1
    17   11   15 2
    18   11   12 1
    19   12   13 2
    20   12   39 1
    21   13   14 1
    22   14   19 1
    23   14   15 1
    24   15   16 1
    25   16   17 2
    26   17   18 1
    27   17   49 1
    28   18   19 2
    29   18   50 1
    30   19   20 1
    31   20   26 1
    32   20   21 1
    33   20   51 1
    34   21   22 1
    35   21   52 1
    36   21   53 1
    37   22   27 1
    38   22   23 1
    39   22   54 1
    40   23   24 1
    41   23   55 1
    42   23   56 1
    43   24   25 1
    44   24   57 1
    45   24   58 1
    46   25   26 1
    47   25   27 1
    48   25   59 1
    49   26   60 1
    50   26   61 1
    51   27   28 am
    52   28   29 2
    53   28   30 am
    54   30   34 1
    55   30   31 1
    56   31   32 1
    57   31   62 1
    58   31   63 1
    59   32   33 1
    60   32   64 1
    61   32   65 1
    62   33   34 1
    63   33   66 1
    64   33   67 1
    65   34   35 1
    66   34   36 1
    67   36   37 2
    68   36   38 1
    69   39   44 ar
    70   39   40 ar
    71   40   41 ar
    72   40   68 1
    73   41   42 ar
    74   41   69 1
    75   42   43 ar
    76   43   44 ar
    77   43   70 1
    78   44   71 1
@<TRIPOS>MOLECULE
CHEMBL200118
   29    31     0     0     0
SMALL
USER_CHARGES

@<TRIPOS>ATOM
      1 C1         -0.0169    1.3921    0.0097 C.ar      1 <0>        -0.0859
      2 C2          1.1691    2.0976    0.0022 C.ar      1 <0>        -0.0891
      3 C3          2.3783    1.4257   -0.0130 C.ar      1 <0>        -0.0570
      4 C4          2.4067    0.0361   -0.0207 C.ar      1 <0>         0.1229
      5 C5          1.2231   -0.6808   -0.0133 C.ar      1 <0>        -0.1244
      6 C6          0.0021   -0.0041    0.0020 C.ar      1 <0>        -0.0022
      7 C7         -1.2652   -0.7624    0.0105 C.2       1 <0>         0.0343
      8 C8         -2.3737   -0.5181    0.8013 C.2       1 <0>         0.0575
      9 N1         -3.3036   -1.4411    0.4900 N.2       1 <0>        -0.4722
     10 C9         -2.8401   -2.2323   -0.4362 C.2       1 <0>         0.2068
     11 N2         -1.5820   -1.8485   -0.7698 N.pl3     1 <0>        -0.5598
     12 H1         -1.0112   -2.2649   -1.4345 H         1 <0>         0.4267
     13 C10        -2.5120    0.5599    1.8063 C.ar      1 <0>         0.0398
     14 C11        -1.4147    0.9787    2.5673 C.ar      1 <0>        -0.1595
     15 C12        -1.5881    1.9866    3.4921 C.ar      1 <0>         0.1013
     16 N3         -2.7676    2.5532    3.6639 N.ar      1 <0>        -0.4843
     17 C13        -3.8277    2.1884    2.9674 C.ar      1 <0>         0.1006
     18 C14        -3.7424    1.1925    2.0176 C.ar      1 <0>        -0.1468
     19 O1          3.5976   -0.6189   -0.0361 O.3       1 <0>        -0.4848
     20 Cl1         3.8654    2.3212   -0.0230 Cl        1 <0>        -0.0479
     21 H2         -0.9592    1.9196    0.0260 H         1 <0>         0.1382
     22 H3          1.1532    3.1774    0.0078 H         1 <0>         0.1454
     23 H4          1.2439   -1.7605   -0.0196 H         1 <0>         0.1377
     24 H5         -3.3757   -3.0621   -0.8732 H         1 <0>         0.2182
     25 H6         -0.4468    0.5191    2.4325 H         1 <0>         0.1324
     26 H7         -0.7473    2.3167    4.0842 H         1 <0>         0.1571
     27 H8         -4.7739    2.6793    3.1411 H         1 <0>         0.1587
     28 H9         -4.6130    0.9020    1.4483 H         1 <0>         0.1395
     29 H10         3.9510   -0.8132    0.8428 H         1 <0>         0.3968
@<TRIPOS>BOND
     1    1    6 ar
     2    1    2 ar
     3    1   21 1
     4    2    3 ar
     5    2   22 1
     6    3    4 ar
     7    3   20 1
     8    4    5 ar
     9    4   19 1
    10    5    6 ar
    11    5   23 1
    12    6    7 1
    13    7   11 1
    14    7    8 2
    15    8    9 1
    16    8   13 1
    17    9   10 2
    18   10   11 1
    19   10   24 1
    20   11   12 1
    21   13   18 ar
    22   13   14 ar
    23   14   15 ar
    24   14   25 1
    25   15   16 ar
    26   15   26 1
    27   16   17 ar
    28   17   18 ar
    29   17   27 1
    30   18   28 1
    31   19   29 1
@<TRIPOS>MOLECULE
CHEMBL200118__1
   29    31     0     0     0
SMALL
USER_CHARGES

@<TRIPOS>ATOM
      1 C1         -0.0168    1.3903    0.0097 C.ar      1 <0>        -0.1001
      2 C2          1.1693    2.0964    0.0022 C.ar      1 <0>        -0.0934
      3 C3          2.3783    1.4246   -0.0135 C.ar      1 <0>        -0.0602
      4 C4          2.4057    0.0353   -0.0212 C.ar      1 <0>         0.1184
      5 C5          1.2211   -0.6806   -0.0137 C.ar      1 <0>        -0.1048
      6 C6          0.0021   -0.0041    0.0020 C.ar      1 <0>         0.0138
      7 C7         -1.2695   -0.7643    0.0106 C.2       1 <0>         0.0698
      8 C8         -2.4366   -0.4018    0.6589 C.2       1 <0>         0.0203
      9 N1         -3.3482   -1.3981    0.3925 N.pl3     1 <0>        -0.5562
     10 C9         -2.7306   -2.3115   -0.3865 C.2       1 <0>         0.2093
     11 N2         -1.5042   -1.9320   -0.6156 N.2       1 <0>        -0.4757
     12 H1         -4.2652   -1.4368    0.7065 H         1 <0>         0.4263
     13 C10        -2.6592    0.8089    1.4727 C.ar      1 <0>         0.0252
     14 C11        -1.7096    1.2291    2.4136 C.ar      1 <0>        -0.1458
     15 C12        -1.9588    2.3660    3.1521 C.ar      1 <0>         0.1074
     16 N3         -3.0721    3.0545    2.9822 N.ar      1 <0>        -0.4799
     17 C13        -3.9926    2.6943    2.1074 C.ar      1 <0>         0.1069
     18 C14        -3.8236    1.5740    1.3223 C.ar      1 <0>        -0.1667
     19 O1          3.5961   -0.6207   -0.0365 O.3       1 <0>        -0.4844
     20 Cl1         3.8657    2.3197   -0.0240 Cl        1 <0>        -0.0543
     21 H2         -0.9592    1.9176    0.0260 H         1 <0>         0.1315
     22 H3          1.1532    3.1762    0.0081 H         1 <0>         0.1408
     23 H4          1.2409   -1.7604   -0.0204 H         1 <0>         0.1442
     24 H5         -3.1839   -3.2155   -0.7654 H         1 <0>         0.2177
     25 H6         -0.7966    0.6706    2.5582 H         1 <0>         0.1392
     26 H7         -1.2333    2.6979    3.8800 H         1 <0>         0.1621
     27 H8         -4.8887    3.2879    2.0024 H         1 <0>         0.1605
     28 H9         -4.5787    1.2881    0.6050 H         1 <0>         0.1341
     29 H10         3.9493   -0.8153    0.8424 H         1 <0>         0.3940
@<TRIPOS>BOND
     1    1    6 ar
     2    1    2 ar
     3    1   21 1
     4    2    3 ar
     5    2   22 1
     6    3    4 ar
     7    3   20 1
     8    4    5 ar
     9    4   19 1
    10    5    6 ar
    11    5   23 1
    12    6    7 1
    13    7   11 1
    14    7    8 2
    15    8   13 1
    16    8    9 1
    17    9   10 1
    18    9   12 1
    19   10   24 1
    20   10   11 2
    21   13   18 ar
    22   13   14 ar
    23   14   15 ar
    24   14   25 1
    25   15   16 ar
    26   15   26 1
    27   16   17 ar
    28   17   18 ar
    29   17   27 1
    30   18   28 1
    31   19   29 1
@<TRIPOS>MOLECULE
CHEMBL371952
   36    39     0     0     0
SMALL
USER_CHARGES

@<TRIPOS>ATOM
      1 C1          0.0099    1.3385    0.4658 C.2       1 <0>        -0.2125
      2 C2          1.3368    1.7709    0.2853 C.2       1 <0>        -0.1328
      3 C3          2.1140    0.6512    0.2595 C.2       1 <0>         0.0290
      4 O1          1.3101   -0.4195    0.4159 O.3       1 <0>        -0.1769
      5 C4          0.0385   -0.0077    0.5408 C.2       1 <0>        -0.0153
      6 C5          3.5741    0.6172    0.0898 C.2       1 <0>         0.3027
      7 N1          4.3437   -0.5134    0.0600 N.pl3     1 <0>        -0.5489
      8 H1          4.0289   -1.4269    0.1456 H         1 <0>         0.4295
      9 C6          5.6482   -0.1117   -0.1148 C.2       1 <0>         0.0494
     10 C7          5.6265    1.2717   -0.1864 C.2       1 <0>         0.0698
     11 N2          4.3496    1.6692   -0.0635 N.2       1 <0>        -0.4381
     12 C8          6.8009    2.1541   -0.3717 C.ar      1 <0>         0.0381
     13 C9          7.8089    1.8271   -1.2855 C.ar      1 <0>        -0.1535
     14 C10         8.8853    2.6774   -1.4263 C.ar      1 <0>         0.1027
     15 N3          8.9718    3.7849   -0.7137 N.ar      1 <0>        -0.4820
     16 C11         8.0436    4.1303    0.1586 C.ar      1 <0>         0.1009
     17 C12         6.9306    3.3411    0.3580 C.ar      1 <0>        -0.1452
     18 C13         6.8359   -0.9826   -0.2069 C.ar      1 <0>        -0.0052
     19 C14         7.9784   -0.6920    0.5435 C.ar      1 <0>        -0.0830
     20 C15         9.0867   -1.5081    0.4548 C.ar      1 <0>        -0.0887
     21 C16         9.0717   -2.6150   -0.3760 C.ar      1 <0>        -0.0548
     22 C17         7.9402   -2.9118   -1.1259 C.ar      1 <0>         0.1233
     23 C18         6.8203   -2.1032   -1.0399 C.ar      1 <0>        -0.1217
     24 O2          7.9312   -4.0002   -1.9401 O.3       1 <0>        -0.4834
     25 Cl1        10.4718   -3.6358   -0.4820 Cl        1 <0>        -0.0469
     26 H2         -0.8659    1.9667    0.5358 H         1 <0>         0.1591
     27 H3          1.6741    2.7920    0.1861 H         1 <0>         0.1623
     28 H4         -0.8197   -0.6486    0.6789 H         1 <0>         0.2124
     29 H5          7.7450    0.9221   -1.8714 H         1 <0>         0.1332
     30 H6          9.6683    2.4336   -2.1290 H         1 <0>         0.1584
     31 H7          8.1552    5.0457    0.7207 H         1 <0>         0.1593
     32 H8          6.1726    3.6324    1.0702 H         1 <0>         0.1393
     33 H9          7.9936    0.1714    1.1922 H         1 <0>         0.1390
     34 H10         9.9692   -1.2826    1.0352 H         1 <0>         0.1460
     35 H11         5.9386   -2.3356   -1.6186 H         1 <0>         0.1385
     36 H12         7.6184   -4.8090   -1.5122 H         1 <0>         0.3960
@<TRIPOS>BOND
     1    1    5 2
     2    1    2 1
     3    1   26 1
     4    2    3 2
     5    2   27 1
     6    3    4 1
     7    3    6 1
     8    4    5 1
     9    5   28 1
    10    6   11 2
    11    6    7 1
    12    7    8 1
    13    7    9 1
    14    9   10 2
    15    9   18 1
    16   10   11 1
    17   10   12 1
    18   12   17 ar
    19   12   13 ar
    20   13   14 ar
    21   13   29 1
    22   14   15 ar
    23   14   30 1
    24   15   16 ar
    25   16   17 ar
    26   16   31 1
    27   17   32 1
    28   18   23 ar
    29   18   19 ar
    30   19   20 ar
    31   19   33 1
    32   20   21 ar
    33   20   34 1
    34   21   22 ar
    35   21   25 1
    36   22   23 ar
    37   22   24 1
    38   23   35 1
    39   24   36 1
@<TRIPOS>MOLECULE
CHEMBL371952__1
   36    39     0     0     0
SMALL
USER_CHARGES

@<TRIPOS>ATOM
      1 C1         -0.0162    1.3447    0.0094 C.2       1 <0>        -0.2128
      2 C2          1.3229    1.7763   -0.0010 C.2       1 <0>        -0.1314
      3 C3          2.0967    0.6538   -0.0144 C.2       1 <0>         0.0273
      4 O1          1.2788   -0.4178   -0.0124 O.3       1 <0>        -0.1766
      5 C4          0.0021   -0.0041    0.0020 C.2       1 <0>        -0.0146
      6 C5          3.5662    0.6184   -0.0291 C.2       1 <0>         0.3065
      7 N1          4.3559    1.6722   -0.0310 N.2       1 <0>        -0.4412
      8 H1          4.0087   -1.4281   -0.0341 H         1 <0>         0.4299
      9 C6          5.6368    1.2743   -0.0458 C.2       1 <0>         0.0799
     10 C7          5.6502   -0.1111   -0.0537 C.2       1 <0>         0.0386
     11 N2          4.3320   -0.5135   -0.0370 N.pl3     1 <0>        -0.5476
     12 C8          6.8393   -0.9825   -0.0707 C.ar      1 <0>         0.0212
     13 C9          7.9173   -0.7147   -0.9265 C.ar      1 <0>        -0.1429
     14 C10         9.0088   -1.5559   -0.9086 C.ar      1 <0>         0.1080
     15 N3          9.0475   -2.5999   -0.1017 N.ar      1 <0>        -0.4778
     16 C11         8.0552   -2.8889    0.7197 C.ar      1 <0>         0.1079
     17 C12         6.9269   -2.0993    0.7725 C.ar      1 <0>        -0.1642
     18 C13         6.8257    2.1588   -0.0530 C.ar      1 <0>         0.0123
     19 C14         7.9858    1.7766    0.6205 C.ar      1 <0>        -0.0981
     20 C15         9.0916    2.6021    0.6124 C.ar      1 <0>        -0.0929
     21 C16         9.0535    3.8093   -0.0626 C.ar      1 <0>        -0.0585
     22 C17         7.9019    4.1971   -0.7358 C.ar      1 <0>         0.1191
     23 C18         6.7897    3.3723   -0.7376 C.ar      1 <0>        -0.1031
     24 O2          7.8687    5.3841   -1.3972 O.3       1 <0>        -0.4840
     25 Cl1        10.4485    4.8425   -0.0677 Cl        1 <0>        -0.0531
     26 H2         -0.8934    1.9745    0.0252 H         1 <0>         0.1592
     27 H3          1.6705    2.7988    0.0008 H         1 <0>         0.1626
     28 H4         -0.8671   -0.6451    0.0072 H         1 <0>         0.2127
     29 H5          7.8924    0.1374   -1.5895 H         1 <0>         0.1407
     30 H6          9.8440   -1.3584   -1.5642 H         1 <0>         0.1631
     31 H7          8.1305   -3.7536    1.3623 H         1 <0>         0.1614
     32 H8          6.1210   -2.3392    1.4503 H         1 <0>         0.1348
     33 H9          8.0185    0.8351    1.1486 H         1 <0>         0.1326
     34 H10         9.9891    2.3051    1.1346 H         1 <0>         0.1417
     35 H11         5.8954    3.6703   -1.2646 H         1 <0>         0.1450
     36 H12         8.1521    5.3282   -2.3201 H         1 <0>         0.3943
@<TRIPOS>BOND
     1    1    5 2
     2    1    2 1
     3    1   26 1
     4    2    3 2
     5    2   27 1
     6    3    4 1
     7    3    6 1
     8    4    5 1
     9    5   28 1
    10    6    7 2
    11    6   11 1
    12    7    9 1
    13    8   11 1
    14    9   18 1
    15    9   10 2
    16   10   12 1
    17   10   11 1
    18   12   17 ar
    19   12   13 ar
    20   13   14 ar
    21   13   29 1
    22   14   15 ar
    23   14   30 1
    24   15   16 ar
    25   16   17 ar
    26   16   31 1
    27   17   32 1
    28   18   23 ar
    29   18   19 ar
    30   19   20 ar
    31   19   33 1
    32   20   21 ar
    33   20   34 1
    34   21   22 ar
    35   21   25 1
    36   22   23 ar
    37   22   24 1
    38   23   35 1
    39   24   36 1
@<TRIPOS>MOLECULE
CHEMBL524643
   38    41     0     0     0
SMALL
USER_CHARGES

@<TRIPOS>ATOM
      1 C1         -0.0178    1.4608    0.0101 C.3       1 <0>         0.0975
      2 N1          0.0021   -0.0041    0.0020 N.pl3     1 <0>        -0.3633
      3 C2          0.0077   -0.7863   -1.0963 C.2       1 <0>         0.0794
      4 C3          0.0278   -2.0856   -0.6837 C.2       1 <0>        -0.1912
      5 C4          0.0344   -2.0816    0.7347 C.2       1 <0>         0.1244
      6 N2          0.0245   -0.8284    1.1333 N.2       1 <0>        -0.2724
      7 C5          0.0552   -3.2769    1.6114 C.ar      1 <0>         0.0293
      8 C6         -0.6136   -4.4486    1.2443 C.ar      1 <0>        -0.1431
      9 C7         -0.5685   -5.5377    2.0898 C.ar      1 <0>         0.1020
     10 N3          0.0931   -5.4831    3.2300 N.ar      1 <0>        -0.4792
     11 C8          0.7372   -4.3973    3.6136 C.ar      1 <0>         0.1003
     12 C9          0.7490   -3.2653    2.8253 C.ar      1 <0>        -0.1467
     13 C10         0.0395   -3.2831   -1.5573 C.ar      1 <0>         0.0221
     14 C11         0.9758   -4.2951   -1.3428 C.ar      1 <0>        -0.1082
     15 C12         0.9885   -5.4077   -2.1526 C.ar      1 <0>        -0.0502
     16 C13         0.0626   -5.5263   -3.1928 C.ar      1 <0>        -0.1140
     17 C14        -0.8731   -4.5115   -3.4039 C.ar      1 <0>        -0.0898
     18 C15        -0.8896   -3.4023   -2.5918 C.ar      1 <0>        -0.0956
     19 C16        -1.7195   -4.9270   -4.5812 C.3       1 <0>         0.1597
     20 N4         -1.2111   -6.2304   -5.0228 N.pl3     1 <0>        -0.7070
     21 C17        -0.1571   -6.5838   -4.2009 C.2       1 <0>         0.4058
     22 N5          0.5356   -7.6810   -4.2998 N.2       1 <0>        -0.4091
     23 O1          1.5958   -7.9328   -3.3956 O.3       1 <0>        -0.4059
     24 H1          1.0048    1.8381    0.0023 H         1 <0>         0.0807
     25 H2         -0.5450    1.8219   -0.8730 H         1 <0>         0.0931
     26 H3         -0.5280    1.8123    0.9069 H         1 <0>         0.0940
     27 H4         -0.0022   -0.4443   -2.1207 H         1 <0>         0.1832
     28 H5         -1.1578   -4.5001    0.3128 H         1 <0>         0.1372
     29 H6         -1.0820   -6.4472    1.8149 H         1 <0>         0.1591
     30 H7          1.2662   -4.3964    4.5552 H         1 <0>         0.1599
     31 H8          1.2821   -2.3815    3.1434 H         1 <0>         0.1384
     32 H9          1.6923   -4.2049   -0.5397 H         1 <0>         0.1274
     33 H10         1.7146   -6.1894   -1.9846 H         1 <0>         0.1380
     34 H11        -1.6178   -2.6221   -2.7571 H         1 <0>         0.1301
     35 H12        -2.7627   -5.0162   -4.2782 H         1 <0>         0.0918
     36 H13        -1.6248   -4.1973   -5.3853 H         1 <0>         0.0914
     37 H14        -1.5555   -6.7541   -5.7631 H         1 <0>         0.4306
     38 H15         2.0514   -8.7721   -3.5477 H         1 <0>         0.4001
@<TRIPOS>BOND
     1    1    2 1
     2    1   24 1
     3    1   25 1
     4    1   26 1
     5    2    6 1
     6    2    3 1
     7    3    4 2
     8    3   27 1
     9    4    5 1
    10    4   13 1
    11    5    6 2
    12    5    7 1
    13    7   12 ar
    14    7    8 ar
    15    8    9 ar
    16    8   28 1
    17    9   10 ar
    18    9   29 1
    19   10   11 ar
    20   11   12 ar
    21   11   30 1
    22   12   31 1
    23   13   18 ar
    24   13   14 ar
    25   14   15 ar
    26   14   32 1
    27   15   16 ar
    28   15   33 1
    29   16   21 1
    30   16   17 ar
    31   17   18 ar
    32   17   19 1
    33   18   34 1
    34   19   20 1
    35   19   35 1
    36   19   36 1
    37   20   21 1
    38   20   37 1
    39   21   22 2
    40   22   23 1
    41   23   38 1
@<TRIPOS>MOLECULE
CHEMBL497866
   37    39     0     0     0
SMALL
USER_CHARGES

@<TRIPOS>ATOM
      1 C1          0.0772    1.4984   -0.0654 C.3       1 <0>         0.0978
      2 N1          0.1205    0.0341   -0.0613 N.pl3     1 <0>        -0.3640
      3 C2          0.0773   -0.7588   -1.1511 C.2       1 <0>         0.0772
      4 C3          0.1412   -2.0535   -0.7285 C.2       1 <0>        -0.1914
      5 C4          0.2272   -2.0353    0.6872 C.2       1 <0>         0.1233
      6 N2          0.2200   -0.7785    1.0743 N.2       1 <0>        -0.2731
      7 C5          0.3163   -3.2214    1.5722 C.ar      1 <0>         0.0292
      8 C6         -0.3531   -4.4070    1.2538 C.ar      1 <0>        -0.1416
      9 C7         -0.2428   -5.4869    2.1049 C.ar      1 <0>         0.1032
     10 N3          0.4813   -5.4109    3.2052 N.ar      1 <0>        -0.4793
     11 C8          1.1284   -4.3116    3.5422 C.ar      1 <0>         0.0997
     12 C9          1.0766   -3.1869    2.7451 C.ar      1 <0>        -0.1474
     13 C10         0.1236   -3.2593   -1.5905 C.ar      1 <0>         0.0154
     14 C11         1.0871   -4.2535   -1.4186 C.ar      1 <0>        -0.1091
     15 C12         1.0712   -5.3736   -2.2190 C.ar      1 <0>        -0.0620
     16 C13         0.0907   -5.5144   -3.2028 C.ar      1 <0>        -0.1018
     17 C14        -0.8732   -4.5192   -3.3744 C.ar      1 <0>        -0.0911
     18 C15        -0.8598   -3.4021   -2.5697 C.ar      1 <0>        -0.1189
     19 C16         0.0734   -6.7174   -4.0633 C.2       1 <0>         0.4159
     20 N4          0.5621   -7.8400   -3.6223 N.2       1 <0>        -0.4238
     21 O1          0.9846   -7.9475   -2.2751 O.3       1 <0>        -0.4028
     22 N5         -0.4628   -6.6490   -5.3384 N.pl3     1 <0>        -0.8326
     23 H1          1.0914    1.8918   -0.1341 H         1 <0>         0.0803
     24 H2         -0.5046    1.8423   -0.9206 H         1 <0>         0.0926
     25 H3         -0.3875    1.8507    0.8555 H         1 <0>         0.0937
     26 H4          0.0049   -0.4273   -2.1764 H         1 <0>         0.1824
     27 H5         -0.9479   -4.4761    0.3550 H         1 <0>         0.1370
     28 H6         -0.7565   -6.4069    1.8677 H         1 <0>         0.1595
     29 H7          1.7097   -4.2933    4.4522 H         1 <0>         0.1596
     30 H8          1.6124   -2.2918    3.0247 H         1 <0>         0.1378
     31 H9          1.8457   -4.1443   -0.6577 H         1 <0>         0.1233
     32 H10         1.8173   -6.1431   -2.0860 H         1 <0>         0.1426
     33 H11        -1.6317   -4.6274   -4.1356 H         1 <0>         0.1263
     34 H12        -1.6080   -2.6342   -2.6994 H         1 <0>         0.1267
     35 H13         1.3328   -8.8186   -2.0404 H         1 <0>         0.3960
     36 H14        -0.8270   -5.8123   -5.6672 H         1 <0>         0.4115
     37 H15        -0.4741   -7.4379   -5.9028 H         1 <0>         0.4079
@<TRIPOS>BOND
     1    1    2 1
     2    1   23 1
     3    1   24 1
     4    1   25 1
     5    2    6 1
     6    2    3 1
     7    3    4 2
     8    3   26 1
     9    4    5 1
    10    4   13 1
    11    5    6 2
    12    5    7 1
    13    7   12 ar
    14    7    8 ar
    15    8    9 ar
    16    8   27 1
    17    9   10 ar
    18    9   28 1
    19   10   11 ar
    20   11   12 ar
    21   11   29 1
    22   12   30 1
    23   13   18 ar
    24   13   14 ar
    25   14   15 ar
    26   14   31 1
    27   15   16 ar
    28   15   32 1
    29   16   17 ar
    30   16   19 1
    31   17   18 ar
    32   17   33 1
    33   18   34 1
    34   19   20 2
    35   19   22 1
    36   20   21 1
    37   21   35 1
    38   22   36 1
    39   22   37 1
@<TRIPOS>MOLECULE
CHEMBL497701
   38    41     0     0     0
SMALL
USER_CHARGES

@<TRIPOS>ATOM
      1 C1         -0.0178    1.4608    0.0101 C.3       1 <0>         0.0972
      2 N1          0.0021   -0.0041    0.0020 N.pl3     1 <0>        -0.3581
      3 C2          0.0077   -0.7863   -1.0965 C.2       1 <0>         0.0729
      4 C3          0.0281   -2.0856   -0.6842 C.2       1 <0>        -0.1686
      5 C4          0.0350   -2.0820    0.7345 C.2       1 <0>         0.1218
      6 N2          0.0245   -0.8283    1.1333 N.2       1 <0>        -0.2645
      7 C5          0.0561   -3.2766    1.6105 C.ar      1 <0>         0.2482
      8 C6          0.5649   -3.1960    2.9105 C.ar      1 <0>        -0.1992
      9 C7          0.5615   -4.3398    3.6875 C.ar      1 <0>         0.1508
     10 N3          0.0805   -5.4647    3.1796 N.ar      1 <0>        -0.5174
     11 C8         -0.3924   -5.5084    1.9500 C.ar      1 <0>         0.3008
     12 N4         -0.4144   -4.4441    1.1750 N.ar      1 <0>        -0.4912
     13 C9          0.0400   -3.2828   -1.5581 C.ar      1 <0>         0.0375
     14 C10         0.9765   -4.2949   -1.3442 C.ar      1 <0>        -0.0930
     15 C11         0.9867   -5.4044   -2.1550 C.ar      1 <0>        -0.0655
     16 C12         0.0581   -5.5252   -3.2000 C.ar      1 <0>        -0.0711
     17 C13        -0.8760   -4.5123   -3.4108 C.ar      1 <0>        -0.0589
     18 C14        -0.8880   -3.4021   -2.5913 C.ar      1 <0>        -0.1030
     19 C15        -1.7574   -4.8708   -4.5835 C.3       1 <0>        -0.0817
     20 C16        -1.2689   -6.2343   -5.0909 C.3       1 <0>        -0.1140
     21 C17        -0.1201   -6.6090   -4.1863 C.2       1 <0>         0.1759
     22 N5          0.5856   -7.6910   -4.2624 N.2       1 <0>        -0.3284
     23 O1          0.3035   -8.6513   -5.2641 O.3       1 <0>        -0.4081
     24 H1          1.0048    1.8381    0.0023 H         1 <0>         0.0818
     25 H2         -0.5450    1.8219   -0.8730 H         1 <0>         0.0945
     26 H3         -0.5280    1.8123    0.9069 H         1 <0>         0.0945
     27 H4         -0.0024   -0.4442   -2.1209 H         1 <0>         0.1856
     28 H5          0.9510   -2.2646    3.2975 H         1 <0>         0.1516
     29 H6          0.9466   -4.3164    4.6962 H         1 <0>         0.1727
     30 H7         -0.7767   -6.4429    1.5687 H         1 <0>         0.1996
     31 H8          1.6937   -4.2061   -0.5416 H         1 <0>         0.1164
     32 H9          1.7125   -6.1864   -1.9874 H         1 <0>         0.1255
     33 H10        -1.6157   -2.6209   -2.7540 H         1 <0>         0.1255
     34 H11        -2.7967   -4.9416   -4.2625 H         1 <0>         0.0889
     35 H12        -1.6581   -4.1218   -5.3690 H         1 <0>         0.0883
     36 H13        -2.0663   -6.9735   -5.0145 H         1 <0>         0.0940
     37 H14        -0.9262   -6.1527   -6.1224 H         1 <0>         0.0936
     38 H15         0.8830   -9.4251   -5.2415 H         1 <0>         0.4052
@<TRIPOS>BOND
     1    1    2 1
     2    1   24 1
     3    1   25 1
     4    1   26 1
     5    2    6 1
     6    2    3 1
     7    3    4 2
     8    3   27 1
     9    4    5 1
    10    4   13 1
    11    5    6 2
    12    5    7 1
    13    7   12 ar
    14    7    8 ar
    15    8    9 ar
    16    8   28 1
    17    9   10 ar
    18    9   29 1
    19   10   11 ar
    20   11   12 ar
    21   11   30 1
    22   13   18 ar
    23   13   14 ar
    24   14   15 ar
    25   14   31 1
    26   15   16 ar
    27   15   32 1
    28   16   21 1
    29   16   17 ar
    30   17   18 ar
    31   17   19 1
    32   18   33 1
    33   19   20 1
    34   19   34 1
    35   19   35 1
    36   20   21 1
    37   20   36 1
    38   20   37 1
    39   21   22 2
    40   22   23 1
    41   23   38 1
@<TRIPOS>MOLECULE
CHEMBL498344
   53    57     0     0     0
SMALL
USER_CHARGES

@<TRIPOS>ATOM
      1 C1         -0.0168    1.3908    0.0097 C.ar      1 <0>        -0.1109
      2 C2          1.1640    2.0945    0.0022 C.ar      1 <0>        -0.0637
      3 C3          2.3915    1.4155   -0.0131 C.ar      1 <0>        -0.0698
      4 C4          2.4067    0.0213   -0.0207 C.ar      1 <0>        -0.0574
      5 C5          1.2202   -0.6823   -0.0128 C.ar      1 <0>        -0.1063
      6 C6          0.0021   -0.0041    0.0020 C.ar      1 <0>         0.0234
      7 C7         -1.2706   -0.7638    0.0101 C.2       1 <0>        -0.1895
      8 C8         -1.6067   -1.7834   -0.8305 C.2       1 <0>         0.0812
      9 N1         -2.8430   -2.2046   -0.4953 N.pl3     1 <0>        -0.3537
     10 N2         -3.2973   -1.4333    0.5811 N.2       1 <0>        -0.2700
     11 C9         -2.3595   -0.5675    0.8976 C.2       1 <0>         0.1244
     12 C10        -2.4294    0.4371    1.9856 C.ar      1 <0>         0.0304
     13 C11        -1.2876    0.7907    2.7112 C.ar      1 <0>        -0.1431
     14 C12        -1.3973    1.7300    3.7155 C.ar      1 <0>         0.1013
     15 N3         -2.5584    2.2914    3.9939 N.ar      1 <0>        -0.4797
     16 C13        -3.6592    1.9862    3.3336 C.ar      1 <0>         0.1000
     17 C14        -3.6377    1.0612    2.3104 C.ar      1 <0>        -0.1466
     18 C15        -3.5856   -3.2858   -1.1477 C.3       1 <0>         0.1667
     19 H1         -4.3095   -3.7033   -0.4478 H         1 <0>         0.1087
     20 C16        -2.6114   -4.3806   -1.5874 C.3       1 <0>        -0.1329
     21 C17        -3.3870   -5.5098   -2.2688 C.3       1 <0>        -0.1125
     22 C18        -4.1206   -4.9583   -3.4929 C.3       1 <0>        -0.1578
     23 C19        -5.0948   -3.8635   -3.0532 C.3       1 <0>         0.1107
     24 H2         -5.8187   -4.2810   -2.3533 H         1 <0>         0.0605
     25 C20        -4.3193   -2.7343   -2.3718 C.3       1 <0>        -0.1252
     26 O1         -5.7801   -3.3484   -4.1965 O.3       1 <0>        -0.5648
     27 C21         3.8344   -0.4704   -0.0369 C.3       1 <0>        -0.0825
     28 C22         4.7229    0.7809   -0.0387 C.3       1 <0>        -0.1141
     29 C23         3.7677    1.9494   -0.0234 C.2       1 <0>         0.1733
     30 N4          4.0975    3.2008   -0.0199 N.2       1 <0>        -0.3253
     31 O2          5.4637    3.5729   -0.0309 O.3       1 <0>        -0.4064
     32 H3         -0.9593    1.9179    0.0260 H         1 <0>         0.1265
     33 H4          1.1467    3.1743    0.0078 H         1 <0>         0.1294
     34 H5          1.2348   -1.7622   -0.0190 H         1 <0>         0.1279
     35 H6         -0.9922   -2.1825   -1.6239 H         1 <0>         0.1797
     36 H7         -0.3341    0.3349    2.4889 H         1 <0>         0.1380
     37 H8         -0.5211    2.0093    4.2817 H         1 <0>         0.1589
     38 H9         -4.5887    2.4700    3.5950 H         1 <0>         0.1594
     39 H10        -4.5417    0.8195    1.7710 H         1 <0>         0.1381
     40 H11        -1.8876   -3.9631   -2.2873 H         1 <0>         0.0769
     41 H12        -2.0888   -4.7735   -0.7153 H         1 <0>         0.0799
     42 H13        -2.6929   -6.2897   -2.5821 H         1 <0>         0.0797
     43 H14        -4.1108   -5.9273   -1.5689 H         1 <0>         0.0712
     44 H15        -3.3968   -4.5408   -4.1928 H         1 <0>         0.0752
     45 H16        -4.6732   -5.7628   -3.9784 H         1 <0>         0.0729
     46 H17        -5.0133   -1.9544   -2.0586 H         1 <0>         0.0811
     47 H18        -3.5954   -2.3169   -3.0717 H         1 <0>         0.0788
     48 H19        -6.2939   -4.0108   -4.6786 H         1 <0>         0.3831
     49 H20         4.0339   -1.0696    0.8514 H         1 <0>         0.0900
     50 H21         4.0169   -1.0601   -0.9353 H         1 <0>         0.0895
     51 H22         5.3539    0.7973    0.8500 H         1 <0>         0.0948
     52 H23         5.3368    0.8068   -0.9391 H         1 <0>         0.0943
     53 H24         5.6110    4.5286   -0.0272 H         1 <0>         0.4062
@<TRIPOS>BOND
     1    1    6 ar
     2    1    2 ar
     3    1   32 1
     4    2    3 ar
     5    2   33 1
     6    3   29 1
     7    3    4 ar
     8    4    5 ar
     9    4   27 1
    10    5    6 ar
    11    5   34 1
    12    6    7 1
    13    7   11 1
    14    7    8 2
    15    8    9 1
    16    8   35 1
    17    9   10 1
    18    9   18 1
    19   10   11 2
    20   11   12 1
    21   12   17 ar
    22   12   13 ar
    23   13   14 ar
    24   13   36 1
    25   14   15 ar
    26   14   37 1
    27   15   16 ar
    28   16   17 ar
    29   16   38 1
    30   17   39 1
    31   18   19 1
    32   18   25 1
    33   18   20 1
    34   20   21 1
    35   20   40 1
    36   20   41 1
    37   21   22 1
    38   21   42 1
    39   21   43 1
    40   22   23 1
    41   22   44 1
    42   22   45 1
    43   23   24 1
    44   23   25 1
    45   23   26 1
    46   25   46 1
    47   25   47 1
    48   26   48 1
    49   27   28 1
    50   27   49 1
    51   27   50 1
    52   28   29 1
    53   28   51 1
    54   28   52 1
    55   29   30 2
    56   30   31 1
    57   31   53 1
@<TRIPOS>MOLECULE
CHEMBL1213925
   57    60     0     0     0
SMALL
USER_CHARGES

@<TRIPOS>ATOM
      1 C1          0.9519    1.2046    0.8426 C.ar      1 <0>        -0.0958
      2 C2          2.2141    1.7929    0.7909 C.ar      1 <0>        -0.1307
      3 C3          3.3378    1.0320    0.6840 C.ar      1 <0>        -0.0735
      4 C4          3.2270   -0.3672    0.6248 C.ar      1 <0>        -0.0554
      5 C5          1.9437   -0.9648    0.6774 C.ar      1 <0>        -0.0263
      6 C6          0.8069   -0.1480    0.7877 C.ar      1 <0>        -0.1255
      7 C7          1.8320   -2.3697    0.6179 C.ar      1 <0>         0.1163
      8 C8          2.9709   -3.1372    0.5098 C.ar      1 <0>        -0.0834
      9 C9          4.2285   -2.5435    0.4586 C.ar      1 <0>        -0.2060
     10 C10         4.3686   -1.1858    0.5145 C.ar      1 <0>         0.1398
     11 O1          5.6060   -0.6259    0.4625 O.3       1 <0>        -0.2928
     12 C11         6.7172   -1.5173    0.3508 C.3       1 <0>         0.0652
     13 C12         8.0162   -0.7101    0.3065 C.3       1 <0>         0.0546
     14 N1          8.2074   -0.0193    1.5887 N.3       1 <0>        -0.5306
     15 C13         9.1570    1.0945    1.4507 C.3       1 <0>         0.0186
     16 C14         9.2808    1.8217    2.7923 C.3       1 <0>         0.0630
     17 O2          9.6830    0.8889    3.7990 O.3       1 <0>        -0.3851
     18 C15         8.7804   -0.2086    3.9606 C.3       1 <0>         0.0638
     19 C16         8.6515   -0.9563    2.6309 C.3       1 <0>         0.0137
     20 N2          0.5737   -2.9793    0.6688 N.am      1 <0>        -0.6663
     21 C17         0.4526   -4.2366    1.1387 C.2       1 <0>         0.7064
     22 O3          1.4445   -4.8683    1.4479 O.2       1 <0>        -0.5510
     23 N3         -0.7680   -4.7938    1.2660 N.am      1 <0>        -0.6810
     24 C18        -0.9025   -6.0587    1.8504 C.ar      1 <0>         0.1720
     25 C19        -0.0570   -6.4411    2.8836 C.ar      1 <0>        -0.0749
     26 C20        -0.1921   -7.6893    3.4587 C.ar      1 <0>        -0.0871
     27 C21        -1.1687   -8.5591    3.0059 C.ar      1 <0>        -0.0088
     28 C22        -2.0121   -8.1808    1.9763 C.ar      1 <0>        -0.1564
     29 C23        -1.8852   -6.9310    1.4018 C.ar      1 <0>        -0.0893
     30 C24        -3.0738   -9.1309    1.4851 C.3       1 <0>         0.5112
     31 F1         -3.7945   -8.5290    0.4481 F         1 <0>        -0.1745
     32 F2         -2.4701  -10.3021    1.0150 F         1 <0>        -0.1674
     33 F3         -3.9423   -9.4435    2.5364 F         1 <0>        -0.1678
     34 Cl1        -1.3355  -10.1278    3.7306 Cl        1 <0>        -0.0404
     35 H1          0.0763    1.8305    0.9321 H         1 <0>         0.1251
     36 H2          2.3021    2.8684    0.8360 H         1 <0>         0.1257
     37 H3          4.3095    1.5016    0.6446 H         1 <0>         0.1356
     38 H4         -0.1774   -0.5905    0.8292 H         1 <0>         0.1218
     39 H5          2.8868   -4.2129    0.4645 H         1 <0>         0.1572
     40 H6          5.1072   -3.1657    0.3738 H         1 <0>         0.1300
     41 H7          6.7344   -2.1863    1.2112 H         1 <0>         0.0649
     42 H8          6.6224   -2.1034   -0.5633 H         1 <0>         0.0695
     43 H9          8.8555   -1.3819    0.1270 H         1 <0>         0.0624
     44 H10         7.9603    0.0243   -0.4971 H         1 <0>         0.0890
     45 H11        10.1320    0.7070    1.1554 H         1 <0>         0.0436
     46 H12         8.7956    1.7890    0.6923 H         1 <0>         0.0885
     47 H13        10.0264    2.6125    2.7101 H         1 <0>         0.0991
     48 H14         8.3176    2.2551    3.0616 H         1 <0>         0.0613
     49 H15         9.1640   -0.8861    4.7234 H         1 <0>         0.0988
     50 H16         7.8027    0.1658    4.2639 H         1 <0>         0.0610
     51 H17         7.9211   -1.7589    2.7339 H         1 <0>         0.0855
     52 H18         9.6184   -1.3766    2.3544 H         1 <0>         0.0448
     53 H19        -0.2115   -2.4970    0.3659 H         1 <0>         0.4087
     54 H20        -1.5533   -4.3183    0.9527 H         1 <0>         0.4136
     55 H21         0.7058   -5.7630    3.2368 H         1 <0>         0.1556
     56 H22         0.4652   -7.9871    4.2622 H         1 <0>         0.1519
     57 H23        -2.5468   -6.6344    0.6014 H         1 <0>         0.1520
@<TRIPOS>BOND
     1    1    6 ar
     2    1    2 ar
     3    1   35 1
     4    2    3 ar
     5    2   36 1
     6    3    4 ar
     7    3   37 1
     8    4   10 ar
     9    4    5 ar
    10    5    6 ar
    11    5    7 ar
    12    6   38 1
    13    7    8 ar
    14    7   20 1
    15    8    9 ar
    16    8   39 1
    17    9   10 ar
    18    9   40 1
    19   10   11 1
    20   11   12 1
    21   12   13 1
    22   12   41 1
    23   12   42 1
    24   13   14 1
    25   13   43 1
    26   13   44 1
    27   14   19 1
    28   14   15 1
    29   15   16 1
    30   15   45 1
    31   15   46 1
    32   16   17 1
    33   16   47 1
    34   16   48 1
    35   17   18 1
    36   18   19 1
    37   18   49 1
    38   18   50 1
    39   19   51 1
    40   19   52 1
    41   20   21 am
    42   20   53 1
    43   21   22 2
    44   21   23 am
    45   23   24 1
    46   23   54 1
    47   24   29 ar
    48   24   25 ar
    49   25   26 ar
    50   25   55 1
    51   26   27 ar
    52   26   56 1
    53   27   28 ar
    54   27   34 1
    55   28   29 ar
    56   28   30 1
    57   29   57 1
    58   30   31 1
    59   30   32 1
    60   30   33 1
@<TRIPOS>MOLECULE
CHEMBL1213925__1
   58    61     0     0     0
SMALL
USER_CHARGES

@<TRIPOS>ATOM
      1 C1          0.7584    0.5892    0.9226 C.ar      1 <0>        -0.0966
      2 C2          1.9574    1.2993    0.9165 C.ar      1 <0>        -0.1117
      3 C3          3.1515    0.6567    0.7967 C.ar      1 <0>        -0.0955
      4 C4          3.1791   -0.7427    0.6773 C.ar      1 <0>        -0.0434
      5 C5          1.9599   -1.4642    0.6835 C.ar      1 <0>        -0.0351
      6 C6          0.7474   -0.7675    0.8089 C.ar      1 <0>        -0.1124
      7 C7          1.9872   -2.8694    0.5636 C.ar      1 <0>         0.1529
      8 C8          3.1972   -3.5169    0.4426 C.ar      1 <0>        -0.1032
      9 C9          4.3910   -2.8020    0.4372 C.ar      1 <0>        -0.1772
     10 C10         4.3967   -1.4408    0.5520 C.ar      1 <0>         0.1072
     11 O1          5.5738   -0.7613    0.5441 O.3       1 <0>        -0.3250
     12 C11         6.7684   -1.5347    0.4138 C.3       1 <0>         0.0245
     13 C12         7.9824   -0.6036    0.4249 C.3       1 <0>         0.0000
     14 N1          8.0918    0.0428    1.7395 N.4       1 <0>        -0.3871
     15 C13         9.1740    1.0362    1.7085 C.3       1 <0>        -0.0438
     16 C14         9.2858    1.7084    3.0792 C.3       1 <0>         0.0354
     17 O2          9.5179    0.7097    4.0766 O.3       1 <0>        -0.3557
     18 C15         8.5015   -0.2953    4.1296 C.3       1 <0>         0.0371
     19 C16         8.3883   -0.9712    2.7609 C.3       1 <0>        -0.0506
     20 N2          0.7942   -3.6002    0.5680 N.am      1 <0>        -0.6710
     21 C17         0.7912   -4.8828    0.9820 C.2       1 <0>         0.7097
     22 O3          1.8368   -5.4290    1.2768 O.2       1 <0>        -0.5508
     23 N3         -0.3708   -5.5601    1.0692 N.am      1 <0>        -0.6770
     24 C18        -0.3872   -6.8570    1.5959 C.ar      1 <0>         0.1649
     25 C19         0.4823   -7.2020    2.6224 C.ar      1 <0>        -0.0749
     26 C20         0.4637   -8.4818    3.1405 C.ar      1 <0>        -0.0881
     27 C21        -0.4200   -9.4206    2.6374 C.ar      1 <0>        -0.0059
     28 C22        -1.2870   -9.0797    1.6144 C.ar      1 <0>        -0.1546
     29 C23        -1.2767   -7.7990    1.0968 C.ar      1 <0>        -0.0856
     30 C24        -2.2473  -10.1047    1.0683 C.3       1 <0>         0.5104
     31 F1         -3.0138   -9.5293    0.0492 F         1 <0>        -0.1738
     32 F2         -1.5289  -11.1900    0.5553 F         1 <0>        -0.1663
     33 F3         -3.0906  -10.5464    2.0934 F         1 <0>        -0.1662
     34 Cl1        -0.4404  -11.0289    3.2905 Cl        1 <0>        -0.0346
     35 H1         -0.1754    1.1224    1.0234 H         1 <0>         0.1320
     36 H2          1.9390    2.3752    1.0078 H         1 <0>         0.1299
     37 H3          4.0729    1.2200    0.7932 H         1 <0>         0.1285
     38 H4         -0.1893   -1.3051    0.8154 H         1 <0>         0.1280
     39 H5          3.2194   -4.5928    0.3511 H         1 <0>         0.1641
     40 H6          5.3274   -3.3314    0.3412 H         1 <0>         0.1310
     41 H7          6.8402   -2.2353    1.2457 H         1 <0>         0.0876
     42 H8          6.7429   -2.0872   -0.5254 H         1 <0>         0.1128
     43 H9          8.8854   -1.1815    0.2279 H         1 <0>         0.1513
     44 H10         7.8633    0.1581   -0.3457 H         1 <0>         0.1452
     45 H11        10.1151    0.5414    1.4684 H         1 <0>         0.1405
     46 H12         8.9551    1.7890    0.9512 H         1 <0>         0.1441
     47 H13        10.1158    2.4149    3.0716 H         1 <0>         0.1432
     48 H14         8.3590    2.2370    3.3021 H         1 <0>         0.0816
     49 H15         8.7639   -1.0389    4.8822 H         1 <0>         0.1428
     50 H16         7.5479    0.1647    4.3884 H         1 <0>         0.0817
     51 H17         7.5860   -1.7086    2.7848 H         1 <0>         0.1408
     52 H18         9.3296   -1.4652    2.5203 H         1 <0>         0.1418
     53 H19        -0.0308   -3.1838    0.2732 H         1 <0>         0.4127
     54 H20        -1.1957   -5.1489    0.7670 H         1 <0>         0.4155
     55 H21         1.1726   -6.4700    3.0149 H         1 <0>         0.1535
     56 H22         1.1397   -8.7506    3.9388 H         1 <0>         0.1525
     57 H23        -1.9570   -7.5319    0.3016 H         1 <0>         0.1532
     58 H24         7.2209    0.5007    1.9628 H         1 <0>         0.4294
@<TRIPOS>BOND
     1    1    6 ar
     2    1    2 ar
     3    1   35 1
     4    2    3 ar
     5    2   36 1
     6    3    4 ar
     7    3   37 1
     8    4   10 ar
     9    4    5 ar
    10    5    6 ar
    11    5    7 ar
    12    6   38 1
    13    7    8 ar
    14    7   20 1
    15    8    9 ar
    16    8   39 1
    17    9   10 ar
    18    9   40 1
    19   10   11 1
    20   11   12 1
    21   12   13 1
    22   12   41 1
    23   12   42 1
    24   13   14 1
    25   13   43 1
    26   13   44 1
    27   14   19 1
    28   14   15 1
    29   14   58 1
    30   15   16 1
    31   15   45 1
    32   15   46 1
    33   16   17 1
    34   16   47 1
    35   16   48 1
    36   17   18 1
    37   18   19 1
    38   18   49 1
    39   18   50 1
    40   19   51 1
    41   19   52 1
    42   20   21 am
    43   20   53 1
    44   21   22 2
    45   21   23 am
    46   23   24 1
    47   23   54 1
    48   24   29 ar
    49   24   25 ar
    50   25   26 ar
    51   25   55 1
    52   26   27 ar
    53   26   56 1
    54   27   28 ar
    55   27   34 1
    56   28   29 ar
    57   28   30 1
    58   29   57 1
    59   30   31 1
    60   30   32 1
    61   30   33 1
@<TRIPOS>MOLECULE
CHEMBL1213924
   53    56     0     0     0
SMALL
USER_CHARGES

@<TRIPOS>ATOM
      1 C1         -0.2654    2.0255    1.2869 C.3       1 <0>        -0.1149
      2 C2          0.1450    0.7036    0.6908 C.ar      1 <0>        -0.1244
      3 C3         -0.0352    0.4695   -0.6590 C.ar      1 <0>        -0.0808
      4 C4          0.3401   -0.7407   -1.2093 C.ar      1 <0>        -0.1281
      5 C5          0.8999   -1.7270   -0.4065 C.ar      1 <0>         0.1694
      6 C6          1.0823   -1.4953    0.9489 C.ar      1 <0>        -0.1361
      7 C7          0.7095   -0.2763    1.4979 C.ar      1 <0>         0.1815
      8 N1          0.8969   -0.0366    2.8625 N.pl3     1 <0>        -0.6323
      9 C8          0.8357   -1.0860    3.7649 C.ar      1 <0>         0.5658
     10 N2          0.4895   -2.2901    3.3324 N.ar      1 <0>        -0.5556
     11 C9          0.4195   -3.3181    4.1630 C.ar      1 <0>         0.1935
     12 C10         0.7132   -3.1278    5.5019 C.ar      1 <0>        -0.2706
     13 C11         1.0750   -1.8474    5.9285 C.ar      1 <0>         0.2664
     14 N3          1.1297   -0.8616    5.0357 N.ar      1 <0>        -0.5591
     15 C12         1.3987   -1.5919    7.3531 C.ar      1 <0>        -0.1167
     16 C13         1.6536   -0.2925    7.8017 C.ar      1 <0>        -0.0276
     17 C14         1.9510   -0.1069    9.1406 C.ar      1 <0>        -0.1780
     18 C15         1.9860   -1.2026    9.9841 C.ar      1 <0>         0.1171
     19 N4          1.7410   -2.4171    9.5318 N.ar      1 <0>        -0.4846
     20 C16         1.4479   -2.6422    8.2673 C.ar      1 <0>         0.1332
     21 N5          1.2789   -2.9529   -0.9647 N.am      1 <0>        -0.6755
     22 C17         1.8150   -2.9936   -2.2006 C.2       1 <0>         0.7068
     23 O1          1.8827   -1.9793   -2.8677 O.2       1 <0>        -0.5501
     24 N6          2.2761   -4.1587   -2.6972 N.am      1 <0>        -0.6810
     25 C18         2.9326   -4.1817   -3.9333 C.ar      1 <0>         0.1729
     26 C19         3.7113   -3.1015   -4.3276 C.ar      1 <0>        -0.0763
     27 C20         4.3579   -3.1267   -5.5475 C.ar      1 <0>        -0.0868
     28 C21         4.2301   -4.2271   -6.3772 C.ar      1 <0>        -0.0097
     29 C22         3.4549   -5.3046   -5.9868 C.ar      1 <0>        -0.1560
     30 C23         2.8110   -5.2870   -4.7648 C.ar      1 <0>        -0.0906
     31 C24         3.3179   -6.5011   -6.8927 C.3       1 <0>         0.5112
     32 F1          2.4916   -7.4531   -6.2861 F         1 <0>        -0.1746
     33 F2          2.7547   -6.1024   -8.1097 F         1 <0>        -0.1674
     34 F3          4.5802   -7.0583   -7.1233 F         1 <0>        -0.1680
     35 Cl1         5.0433   -4.2552   -7.9107 Cl        1 <0>        -0.0409
     36 H1          0.5711    2.7225    1.2357 H         1 <0>         0.0713
     37 H2         -1.1096    2.4295    0.7283 H         1 <0>         0.0730
     38 H3         -0.5544    1.8805    2.3279 H         1 <0>         0.0619
     39 H4         -0.4707    1.2342   -1.2850 H         1 <0>         0.1312
     40 H5          0.1979   -0.9206   -2.2647 H         1 <0>         0.1399
     41 H6          1.5168   -2.2606    1.5751 H         1 <0>         0.1430
     42 H7          1.0698    0.8644    3.1774 H         1 <0>         0.4250
     43 H8          0.1360   -4.2949    3.7999 H         1 <0>         0.1748
     44 H9          0.6634   -3.9496    6.2008 H         1 <0>         0.1505
     45 H10         1.6198    0.5451    7.1207 H         1 <0>         0.1465
     46 H11         2.1537    0.8827    9.5226 H         1 <0>         0.1426
     47 H12         2.2181   -1.0615   11.0294 H         1 <0>         0.1621
     48 H13         1.2487   -3.6505    7.9354 H         1 <0>         0.1624
     49 H14         1.1558   -3.7734   -0.4622 H         1 <0>         0.4102
     50 H15         2.1529   -4.9812   -2.1980 H         1 <0>         0.4135
     51 H16         3.8108   -2.2423   -3.6808 H         1 <0>         0.1564
     52 H17         4.9636   -2.2869   -5.8546 H         1 <0>         0.1517
     53 H18         2.2096   -6.1301   -4.4585 H         1 <0>         0.1519
@<TRIPOS>BOND
     1    1    2 1
     2    1   36 1
     3    1   37 1
     4    1   38 1
     5    2    7 ar
     6    2    3 ar
     7    3    4 ar
     8    3   39 1
     9    4    5 ar
    10    4   40 1
    11    5    6 ar
    12    5   21 1
    13    6    7 ar
    14    6   41 1
    15    7    8 1
    16    8    9 1
    17    8   42 1
    18    9   14 ar
    19    9   10 ar
    20   10   11 ar
    21   11   12 ar
    22   11   43 1
    23   12   13 ar
    24   12   44 1
    25   13   14 ar
    26   13   15 1
    27   15   20 ar
    28   15   16 ar
    29   16   17 ar
    30   16   45 1
    31   17   18 ar
    32   17   46 1
    33   18   19 ar
    34   18   47 1
    35   19   20 ar
    36   20   48 1
    37   21   22 am
    38   21   49 1
    39   22   23 2
    40   22   24 am
    41   24   25 1
    42   24   50 1
    43   25   30 ar
    44   25   26 ar
    45   26   27 ar
    46   26   51 1
    47   27   28 ar
    48   27   52 1
    49   28   29 ar
    50   28   35 1
    51   29   30 ar
    52   29   31 1
    53   30   53 1
    54   31   32 1
    55   31   33 1
    56   31   34 1
@<TRIPOS>MOLECULE
CHEMBL526479
   52    56     0     0     0
SMALL
USER_CHARGES

@<TRIPOS>ATOM
      1 C1         -0.0168    1.3908    0.0097 C.ar      1 <0>        -0.1070
      2 C2          1.1640    2.0945    0.0022 C.ar      1 <0>        -0.0646
      3 C3          2.3915    1.4155   -0.0131 C.ar      1 <0>        -0.0573
      4 C4          2.4067    0.0213   -0.0207 C.ar      1 <0>        -0.0583
      5 C5          1.2202   -0.6823   -0.0128 C.ar      1 <0>        -0.1032
      6 C6          0.0021   -0.0041    0.0020 C.ar      1 <0>         0.0040
      7 C7         -1.2706   -0.7638    0.0101 C.2       1 <0>        -0.1633
      8 C8         -1.6067   -1.7834   -0.8305 C.2       1 <0>         0.0640
      9 N1         -2.8430   -2.2046   -0.4953 N.pl3     1 <0>        -0.3735
     10 N2         -3.2973   -1.4333    0.5811 N.2       1 <0>        -0.2663
     11 C9         -2.3595   -0.5675    0.8976 C.2       1 <0>         0.1425
     12 C10        -2.4294    0.4371    1.9856 C.ar      1 <0>         0.0163
     13 C11        -1.2876    0.7907    2.7112 C.ar      1 <0>        -0.1405
     14 C12        -1.3973    1.7300    3.7155 C.ar      1 <0>         0.1056
     15 N3         -2.5584    2.2914    3.9939 N.ar      1 <0>        -0.4729
     16 C13        -3.6592    1.9862    3.3336 C.ar      1 <0>         0.1031
     17 C14        -3.6377    1.0612    2.3104 C.ar      1 <0>        -0.1450
     18 C15        -3.5856   -3.2858   -1.1477 C.3       1 <0>         0.1582
     19 C16        -2.6108   -4.3780   -1.5973 C.3       1 <0>        -0.1637
     20 C17        -3.3825   -5.4656   -2.3476 C.3       1 <0>         0.0002
     21 N4         -4.0408   -4.8815   -3.5223 N.4       1 <0>        -0.5084
     22 C18        -5.0290   -3.8839   -3.0949 C.3       1 <0>        -0.0018
     23 C19        -4.3206   -2.7354   -2.3733 C.3       1 <0>        -0.1644
     24 C20         3.8344   -0.4704   -0.0369 C.3       1 <0>        -0.0827
     25 C21         4.7229    0.7809   -0.0387 C.3       1 <0>        -0.1150
     26 C22         3.7677    1.9494   -0.0234 C.2       1 <0>         0.1654
     27 N5          4.0975    3.2008   -0.0199 N.2       1 <0>        -0.3188
     28 O1          5.4637    3.5729   -0.0309 O.3       1 <0>        -0.4014
     29 H1         -0.9593    1.9179    0.0260 H         1 <0>         0.1269
     30 H2          1.1467    3.1743    0.0078 H         1 <0>         0.1324
     31 H3          1.2348   -1.7622   -0.0190 H         1 <0>         0.1262
     32 H4         -0.9922   -2.1825   -1.6239 H         1 <0>         0.1803
     33 H5         -0.3341    0.3349    2.4889 H         1 <0>         0.1389
     34 H6         -0.5211    2.0093    4.2817 H         1 <0>         0.1621
     35 H7         -4.5887    2.4700    3.5950 H         1 <0>         0.1620
     36 H8         -4.5417    0.8195    1.7710 H         1 <0>         0.1374
     37 H9         -4.3079   -3.7060   -0.4478 H         1 <0>         0.1220
     38 H10        -1.8581   -3.9452   -2.2564 H         1 <0>         0.1003
     39 H11        -2.1242   -4.8133   -0.7244 H         1 <0>         0.1258
     40 H12        -2.6914   -6.2448   -2.6689 H         1 <0>         0.1447
     41 H13        -4.1346   -5.8978   -1.6876 H         1 <0>         0.1381
     42 H14        -3.3493   -4.4387   -4.1087 H         1 <0>         0.4300
     43 H15        -5.5535   -3.4954   -3.9679 H         1 <0>         0.1429
     44 H16        -5.7460   -4.3498   -2.4189 H         1 <0>         0.1375
     45 H17        -5.0562   -1.9966   -2.0551 H         1 <0>         0.1234
     46 H18        -3.6035   -2.2685   -3.0485 H         1 <0>         0.0971
     47 H19         4.0339   -1.0696    0.8514 H         1 <0>         0.0914
     48 H20         4.0169   -1.0601   -0.9353 H         1 <0>         0.0896
     49 H21         5.3539    0.7973    0.8500 H         1 <0>         0.0969
     50 H22         5.3368    0.8068   -0.9391 H         1 <0>         0.0959
     51 H23         5.6110    4.5286   -0.0272 H         1 <0>         0.4093
     52 H24        -4.5042   -5.6104   -4.0440 H         1 <0>         0.4376
@<TRIPOS>BOND
     1    1    6 ar
     2    1    2 ar
     3    1   29 1
     4    2    3 ar
     5    2   30 1
     6    3   26 1
     7    3    4 ar
     8    4    5 ar
     9    4   24 1
    10    5    6 ar
    11    5   31 1
    12    6    7 1
    13    7   11 1
    14    7    8 2
    15    8    9 1
    16    8   32 1
    17    9   10 1
    18    9   18 1
    19   10   11 2
    20   11   12 1
    21   12   17 ar
    22   12   13 ar
    23   13   14 ar
    24   13   33 1
    25   14   15 ar
    26   14   34 1
    27   15   16 ar
    28   16   17 ar
    29   16   35 1
    30   17   36 1
    31   18   23 1
    32   18   19 1
    33   18   37 1
    34   19   20 1
    35   19   38 1
    36   19   39 1
    37   20   21 1
    38   20   40 1
    39   20   41 1
    40   21   22 1
    41   21   42 1
    42   21   52 1
    43   22   23 1
    44   22   43 1
    45   22   44 1
    46   23   45 1
    47   23   46 1
    48   24   25 1
    49   24   47 1
    50   24   48 1
    51   25   26 1
    52   25   49 1
    53   25   50 1
    54   26   27 2
    55   27   28 1
    56   28   51 1
@<TRIPOS>MOLECULE
CHEMBL212964
   51    54     0     0     0
SMALL
USER_CHARGES

@<TRIPOS>ATOM
      1 C1         -0.0483    1.5024    0.0098 C.3       1 <0>        -0.1268
      2 C2         -0.0195   -0.0043    0.0016 C.ar      1 <0>        -0.0386
      3 C3         -0.0178   -0.6868   -1.1996 C.ar      1 <0>        -0.1235
      4 C4          0.0085   -2.0667   -1.2158 C.ar      1 <0>        -0.0786
      5 C5          0.0330   -2.7811   -0.0158 C.ar      1 <0>        -0.1429
      6 C6          0.0314   -2.0969    1.1984 C.ar      1 <0>        -0.0381
      7 C7          0.0111   -0.7058    1.2063 C.ar      1 <0>        -0.0515
      8 C8          0.0158    0.0300    2.4946 C.ar      1 <0>        -0.0772
      9 C9          0.9293    1.0770    2.6951 C.ar      1 <0>        -0.0510
     10 C10         0.9551    1.7681    3.8654 C.ar      1 <0>        -0.1204
     11 C11         0.0589    1.4368    4.8939 C.ar      1 <0>         0.2179
     12 C12        -0.8687    0.3799    4.7012 C.ar      1 <0>        -0.2150
     13 C13        -0.8839   -0.3174    3.4865 C.ar      1 <0>        -0.0353
     14 C14        -1.7564    0.0690    5.7490 C.ar      1 <0>         0.2447
     15 N1         -1.6869    0.7718    6.8601 N.ar      1 <0>        -0.5585
     16 C15        -0.8035    1.7573    7.0067 C.ar      1 <0>         0.5695
     17 N2          0.0519    2.0930    6.0606 N.ar      1 <0>        -0.5745
     18 N3         -0.7822    2.4573    8.1995 N.pl3     1 <0>        -0.7003
     19 C16        -1.7195    2.1088    9.2701 C.3       1 <0>         0.1036
     20 C17         0.0602   -4.2590   -0.0337 C.2       1 <0>         0.5622
     21 O1          0.0816   -4.8792    1.0117 O.2       1 <0>        -0.5109
     22 N4          0.0613   -4.9189   -1.2088 N.am      1 <0>        -0.6699
     23 C18         0.1847   -6.3117   -1.2285 C.ar      1 <0>         0.1443
     24 C19         0.8894   -6.9337   -2.2514 C.ar      1 <0>        -0.1118
     25 C20         1.0099   -8.3092   -2.2677 C.ar      1 <0>        -0.0994
     26 C21         0.4298   -9.0675   -1.2671 C.ar      1 <0>        -0.0865
     27 C22        -0.2722   -8.4516   -0.2475 C.ar      1 <0>        -0.1642
     28 C23        -0.3920   -7.0758   -0.2225 C.ar      1 <0>        -0.0722
     29 C24        -0.9025   -9.2820    0.8407 C.3       1 <0>         0.5093
     30 F1         -0.6426  -10.6360    0.6040 F         1 <0>        -0.1761
     31 F2         -0.3653   -8.9135    2.0788 F         1 <0>        -0.1725
     32 F3         -2.2849   -9.0671    0.8497 F         1 <0>        -0.1757
     33 H1          0.9721    1.8854   -0.0029 H         1 <0>         0.0794
     34 H2         -0.5817    1.8604   -0.8708 H         1 <0>         0.0726
     35 H3         -0.5562    1.8513    0.9089 H         1 <0>         0.0757
     36 H4         -0.0375   -0.1384   -2.1297 H         1 <0>         0.1346
     37 H5          0.0097   -2.5949   -2.1579 H         1 <0>         0.1271
     38 H6          0.0504   -2.6442    2.1292 H         1 <0>         0.1407
     39 H7          1.6219    1.3369    1.9082 H         1 <0>         0.1341
     40 H8          1.6644    2.5707    4.0039 H         1 <0>         0.1397
     41 H9         -1.5883   -1.1204    3.3272 H         1 <0>         0.1366
     42 H10        -2.4780   -0.7275    5.6434 H         1 <0>         0.1790
     43 H11        -0.1467    3.1789    8.3270 H         1 <0>         0.4167
     44 H12        -1.5540    2.7640   10.1254 H         1 <0>         0.0775
     45 H13        -2.7417    2.2301    8.9119 H         1 <0>         0.0605
     46 H14        -1.5600    1.0730    9.5698 H         1 <0>         0.0606
     47 H15        -0.0236   -4.4277   -2.0409 H         1 <0>         0.4141
     48 H16         1.3423   -6.3421   -3.0333 H         1 <0>         0.1371
     49 H17         1.5573   -8.7933   -3.0629 H         1 <0>         0.1416
     50 H18         0.5252  -10.1432   -1.2823 H         1 <0>         0.1414
     51 H19        -0.9370   -6.5950    0.5764 H         1 <0>         0.1510
@<TRIPOS>BOND
     1    1    2 1
     2    1   33 1
     3    1   34 1
     4    1   35 1
     5    2    7 ar
     6    2    3 ar
     7    3    4 ar
     8    3   36 1
     9    4    5 ar
    10    4   37 1
    11    5    6 ar
    12    5   20 1
    13    6    7 ar
    14    6   38 1
    15    7    8 1
    16    8   13 ar
    17    8    9 ar
    18    9   10 ar
    19    9   39 1
    20   10   11 ar
    21   10   40 1
    22   11   17 ar
    23   11   12 ar
    24   12   13 ar
    25   12   14 ar
    26   13   41 1
    27   14   15 ar
    28   14   42 1
    29   15   16 ar
    30   16   17 ar
    31   16   18 1
    32   18   19 1
    33   18   43 1
    34   19   44 1
    35   19   45 1
    36   19   46 1
    37   20   21 2
    38   20   22 am
    39   22   23 1
    40   22   47 1
    41   23   28 ar
    42   23   24 ar
    43   24   25 ar
    44   24   48 1
    45   25   26 ar
    46   25   49 1
    47   26   27 ar
    48   26   50 1
    49   27   28 ar
    50   27   29 1
    51   28   51 1
    52   29   30 1
    53   29   31 1
    54   29   32 1
@<TRIPOS>MOLECULE
CHEMBL1090804
   49    53     0     0     0
SMALL
USER_CHARGES

@<TRIPOS>ATOM
      1 C1          0.0045    1.3798    0.1748 C.ar      1 <0>        -0.0954
      2 C2          1.1744    2.0886   -0.0118 C.ar      1 <0>        -0.1050
      3 C3          2.3777    1.4106   -0.2040 C.ar      1 <0>        -0.0451
      4 C4          2.3949    0.0172   -0.2069 C.ar      1 <0>        -0.0697
      5 C5          1.2153   -0.6866   -0.0188 C.ar      1 <0>         0.1432
      6 C6          0.0208   -0.0020    0.1720 C.ar      1 <0>        -0.1214
      7 N1          1.2273   -2.0852   -0.0214 N.am      1 <0>        -0.6690
      8 C7          2.2968   -2.7509    0.4577 C.2       1 <0>         0.5591
      9 O1          3.2092   -2.1401    0.9795 O.2       1 <0>        -0.4978
     10 C8          2.3605   -4.2236    0.3486 C.ar      1 <0>        -0.1377
     11 C9          1.3170   -4.9276   -0.2553 C.ar      1 <0>        -0.0545
     12 C10         1.3827   -6.3019   -0.3539 C.ar      1 <0>        -0.1232
     13 C11         2.4794   -6.9828    0.1446 C.ar      1 <0>        -0.0427
     14 C12         3.5168   -6.2913    0.7441 C.ar      1 <0>        -0.1884
     15 C13         3.4666   -4.9160    0.8436 C.ar      1 <0>        -0.0065
     16 C14         4.7070   -7.0412    1.2846 C.3       1 <0>         0.5101
     17 F1          4.5337   -8.4119    1.0645 F         1 <0>        -0.1746
     18 F2          5.8666   -6.6073    0.6333 F         1 <0>        -0.1725
     19 F3          4.8255   -6.8007    2.6576 F         1 <0>        -0.1723
     20 C15         3.6346    2.1697   -0.4049 C.ar      1 <0>         0.2840
     21 C16         3.6367    3.3735   -1.0915 C.ar      1 <0>        -0.2385
     22 C17         4.8353    4.1014   -1.2854 C.ar      1 <0>         0.1718
     23 C18         4.7016    5.3035   -1.9960 C.2       1 <0>        -0.1325
     24 C19         3.4789    5.6938   -2.4446 C.2       1 <0>        -0.0598
     25 S1          2.4113    4.3752   -1.8894 S.3       1 <0>         0.1297
     26 C20         3.1215    6.9108   -3.2046 C.ar      1 <0>         0.0252
     27 C21         4.0979    7.8467   -3.5646 C.ar      1 <0>        -0.1456
     28 C22         3.7203    8.9679   -4.2740 C.ar      1 <0>         0.1085
     29 N2          2.4599    9.1633   -4.6117 N.ar      1 <0>        -0.4766
     30 C23         1.5086    8.3067   -4.2926 C.ar      1 <0>         0.1086
     31 C24         1.7981    7.1561   -3.5890 C.ar      1 <0>        -0.1533
     32 N3          5.9512    3.5405   -0.7598 N.ar      1 <0>        -0.4935
     33 C25         5.9054    2.4012   -0.1186 C.ar      1 <0>         0.3068
     34 N4          4.7946    1.7147    0.0755 N.ar      1 <0>        -0.4867
     35 H1         -0.9257    1.9068    0.3279 H         1 <0>         0.1385
     36 H2          1.1576    3.1685   -0.0093 H         1 <0>         0.1282
     37 H3          3.3241   -0.5127   -0.3557 H         1 <0>         0.1470
     38 H4         -0.8973   -0.5516    0.3188 H         1 <0>         0.1341
     39 H5          0.4659   -2.5761   -0.3680 H         1 <0>         0.4124
     40 H6          0.4602   -4.3975   -0.6441 H         1 <0>         0.1372
     41 H7          0.5762   -6.8477   -0.8208 H         1 <0>         0.1464
     42 H8          2.5256   -8.0589    0.0655 H         1 <0>         0.1474
     43 H9          4.2793   -4.3769    1.3076 H         1 <0>         0.1506
     44 H10         5.5688    5.9183   -2.1863 H         1 <0>         0.1551
     45 H11         5.1314    7.6936   -3.2909 H         1 <0>         0.1431
     46 H12         4.4664    9.6958   -4.5564 H         1 <0>         0.1651
     47 H13         0.4898    8.5071   -4.5898 H         1 <0>         0.1647
     48 H14         1.0150    6.4572   -3.3349 H         1 <0>         0.1397
     49 H15         6.8272    2.0025    0.2787 H         1 <0>         0.2055
@<TRIPOS>BOND
     1    1    6 ar
     2    1    2 ar
     3    1   35 1
     4    2    3 ar
     5    2   36 1
     6    3    4 ar
     7    3   20 1
     8    4    5 ar
     9    4   37 1
    10    5    6 ar
    11    5    7 1
    12    6   38 1
    13    7    8 am
    14    7   39 1
    15    8    9 2
    16    8   10 1
    17   10   15 ar
    18   10   11 ar
    19   11   12 ar
    20   11   40 1
    21   12   13 ar
    22   12   41 1
    23   13   14 ar
    24   13   42 1
    25   14   15 ar
    26   14   16 1
    27   15   43 1
    28   16   17 1
    29   16   18 1
    30   16   19 1
    31   20   34 ar
    32   20   21 ar
    33   21   25 1
    34   21   22 ar
    35   22   23 1
    36   22   32 ar
    37   23   24 2
    38   23   44 1
    39   24   25 1
    40   24   26 1
    41   26   31 ar
    42   26   27 ar
    43   27   28 ar
    44   27   45 1
    45   28   29 ar
    46   28   46 1
    47   29   30 ar
    48   30   31 ar
    49   30   47 1
    50   31   48 1
    51   32   33 ar
    52   33   34 ar
    53   33   49 1
@<TRIPOS>MOLECULE
CHEMBL400308
   53    57     0     0     0
SMALL
USER_CHARGES

@<TRIPOS>ATOM
      1 C1         -0.0036    1.2846    0.0416 C.ar      1 <0>        -0.1787
      2 C2          1.1433    2.0398   -0.1471 C.ar      1 <0>        -0.0314
      3 C3          2.3592    1.4228   -0.3574 C.ar      1 <0>        -0.2094
      4 C4          2.4413    0.0360   -0.3812 C.ar      1 <0>         0.2775
      5 C5          1.2818   -0.7316   -0.1904 C.ar      1 <0>        -0.2290
      6 C6          0.0578   -0.0914    0.0214 C.ar      1 <0>        -0.0330
      7 C7          1.3546   -2.2036   -0.2137 C.2       1 <0>         0.5803
      8 O1          2.4343   -2.7579   -0.2920 O.2       1 <0>        -0.5382
      9 N1          0.2246   -2.9354   -0.1483 N.am      1 <0>        -0.6625
     10 C8          0.2983   -4.3310   -0.0611 C.ar      1 <0>         0.1673
     11 C9         -0.6775   -5.1167   -0.6601 C.ar      1 <0>        -0.1228
     12 C10        -0.6060   -6.4939   -0.5749 C.ar      1 <0>        -0.0572
     13 C11         0.4389   -7.0950    0.1082 C.ar      1 <0>         0.0126
     14 C12         1.4192   -6.3096    0.7102 C.ar      1 <0>         0.0486
     15 C13         1.3500   -4.9295    0.6193 C.ar      1 <0>        -0.0889
     16 O2          2.3276   -7.1314    1.3127 O.3       1 <0>        -0.2863
     17 C14         1.6754   -8.4103    1.4234 C.3       1 <0>         0.5717
     18 O3          0.7339   -8.4095    0.3341 O.3       1 <0>        -0.2837
     19 F1          2.6008   -9.4486    1.2726 F         1 <0>        -0.1140
     20 F2          1.0093   -8.5179    2.6489 F         1 <0>        -0.1495
     21 N2          3.6641   -0.5874   -0.5931 N.pl3     1 <0>        -0.7304
     22 C15         4.8468    0.2123   -0.9216 C.3       1 <0>         0.1509
     23 C16         6.0346   -0.6977   -1.1007 C.ar      1 <0>        -0.0493
     24 C17         6.8431   -1.0283   -0.0241 C.ar      1 <0>        -0.0913
     25 C18         7.9272   -1.8677   -0.2217 C.ar      1 <0>         0.1259
     26 N3          8.1974   -2.3528   -1.4143 N.ar      1 <0>        -0.4439
     27 C19         7.4489   -2.0612   -2.4704 C.ar      1 <0>         0.0788
     28 C20         6.3402   -1.2278   -2.3441 C.ar      1 <0>        -0.0916
     29 C21         7.7926   -2.6318   -3.7949 C.cat     1 <0>         0.5758
     30 N4          7.0914   -2.3757   -4.8852 N.pl3     1 <0>        -0.6356
     31 C22         7.6892   -3.0888   -6.0249 C.3       1 <0>         0.0625
     32 C23         8.8906   -3.8240   -5.3966 C.3       1 <0>         0.0566
     33 N5          8.8275   -3.4321   -3.9798 N.pl3     1 <0>        -0.6137
     34 H1         -0.9497    1.7776    0.2099 H         1 <0>         0.1319
     35 H2          1.0846    3.1180   -0.1298 H         1 <0>         0.1320
     36 H3          3.2481    2.0185   -0.5040 H         1 <0>         0.1300
     37 H4         -0.8390   -0.6748    0.1691 H         1 <0>         0.1276
     38 H5         -0.6397   -2.4952   -0.1616 H         1 <0>         0.4199
     39 H6         -1.4932   -4.6507   -1.1928 H         1 <0>         0.1527
     40 H7         -1.3663   -7.1029   -1.0412 H         1 <0>         0.1536
     41 H8          2.1115   -4.3188    1.0815 H         1 <0>         0.1541
     42 H9          3.7351   -1.5523   -0.5236 H         1 <0>         0.4201
     43 H10         4.6682    0.7626   -1.8454 H         1 <0>         0.0833
     44 H11         5.0463    0.9151   -0.1128 H         1 <0>         0.0882
     45 H12         6.6300   -0.6350    0.9589 H         1 <0>         0.1628
     46 H13         8.5594   -2.1271    0.6146 H         1 <0>         0.1867
     47 H14         5.7294   -0.9950   -3.2038 H         1 <0>         0.1476
     48 H15         6.9805   -3.8016   -6.4465 H         1 <0>         0.1290
     49 H16         8.0252   -2.3841   -6.7855 H         1 <0>         0.1295
     50 H17         8.7802   -4.9030   -5.5052 H         1 <0>         0.1302
     51 H18         9.8250   -3.4854   -5.8442 H         1 <0>         0.1302
     52 H19         9.4466   -3.7179   -3.2899 H         1 <0>         0.4656
     53 H20         6.3064   -1.8076   -4.9275 H         1 <0>         0.4570
@<TRIPOS>BOND
     1    1    6 ar
     2    1    2 ar
     3    1   34 1
     4    2    3 ar
     5    2   35 1
     6    3    4 ar
     7    3   36 1
     8    4    5 ar
     9    4   21 1
    10    5    6 ar
    11    5    7 1
    12    6   37 1
    13    7    8 2
    14    7    9 am
    15    9   10 1
    16    9   38 1
    17   10   15 ar
    18   10   11 ar
    19   11   12 ar
    20   11   39 1
    21   12   13 ar
    22   12   40 1
    23   13   18 1
    24   13   14 ar
    25   14   15 ar
    26   14   16 1
    27   15   41 1
    28   16   17 1
    29   17   18 1
    30   17   19 1
    31   17   20 1
    32   21   22 1
    33   21   42 1
    34   22   23 1
    35   22   43 1
    36   22   44 1
    37   23   28 ar
    38   23   24 ar
    39   24   25 ar
    40   24   45 1
    41   25   26 ar
    42   25   46 1
    43   26   27 ar
    44   27   28 ar
    45   27   29 1
    46   28   47 1
    47   29   33 1
    48   29   30 2
    49   30   31 1
    50   30   53 1
    51   31   32 1
    52   31   48 1
    53   31   49 1
    54   32   33 1
    55   32   50 1
    56   32   51 1
    57   33   52 1
@<TRIPOS>MOLECULE
CHEMBL585921
   54    59     0     0     0
SMALL
USER_CHARGES

@<TRIPOS>ATOM
      1 C1         -0.8746   -5.5227    1.4206 C.3       1 <0>        -0.1059
      2 C2          0.4222   -5.7288    2.1601 C.ar      1 <0>        -0.1410
      3 C3          1.1999   -6.8493    1.8859 C.ar      1 <0>        -0.0780
      4 C4          2.3781   -7.0660    2.5365 C.ar      1 <0>        -0.1334
      5 C5          2.8214   -6.1497    3.4997 C.ar      1 <0>        -0.1018
      6 C6          2.0382   -5.0049    3.7877 C.ar      1 <0>         0.0329
      7 C7          0.8278   -4.8011    3.0978 C.ar      1 <0>         0.2437
      8 N1          0.0449   -3.6771    3.3630 N.pl3     1 <0>        -0.6771
      9 C8          0.5988   -2.5836    4.0116 C.ar      1 <0>         0.4118
     10 C9          1.6432   -1.8683    3.4053 C.ar      1 <0>        -0.1180
     11 C10         2.1856   -0.7704    4.0762 C.ar      1 <0>        -0.0459
     12 C11         1.6667   -0.4340    5.3160 C.ar      1 <0>        -0.1801
     13 C12         0.6372   -1.1865    5.8492 C.ar      1 <0>         0.1383
     14 N2          0.1357   -2.2173    5.1961 N.ar      1 <0>        -0.4998
     15 C13         2.1609   -2.2711    2.0785 C.ar      1 <0>         0.2609
     16 C14         2.3533   -1.3240    1.0679 C.ar      1 <0>        -0.0586
     17 C15         2.8476   -1.7580   -0.1758 C.ar      1 <0>         0.2981
     18 N3          2.9393   -0.6674   -0.9602 N.2       1 <0>        -0.4861
     19 H1          1.8421    0.6324    1.6432 H         1 <0>         0.4295
     20 C16         2.5442    0.3850   -0.2995 C.2       1 <0>         0.3080
     21 N4          2.1730    0.0358    0.9537 N.pl3     1 <0>        -0.5794
     22 N5          3.1131   -3.0561   -0.3417 N.ar      1 <0>        -0.4766
     23 C17         2.9163   -3.9111    0.6381 C.ar      1 <0>         0.3063
     24 N6          2.4599   -3.5446    1.8205 N.ar      1 <0>        -0.4759
     25 C18         2.5078   -4.1015    4.7589 C.ar      1 <0>        -0.2163
     26 C19         3.6905   -4.3613    5.3810 C.ar      1 <0>         0.1175
     27 N7          4.4107   -5.4386    5.0979 N.ar      1 <0>        -0.5381
     28 C20         4.0350   -6.3298    4.2003 C.ar      1 <0>         0.4172
     29 N8          4.8275   -7.4377    3.9459 N.pl3     1 <0>        -0.6535
     30 C21         5.9661   -7.6758    4.7216 C.ar      1 <0>         0.1735
     31 C22         5.9775   -7.3267    6.0660 C.ar      1 <0>        -0.1044
     32 C23         7.1036   -7.5629    6.8298 C.ar      1 <0>        -0.0894
     33 C24         8.2198   -8.1469    6.2570 C.ar      1 <0>        -0.0575
     34 C25         8.2113   -8.4954    4.9177 C.ar      1 <0>        -0.0880
     35 C26         7.0858   -8.2671    4.1506 C.ar      1 <0>        -0.1437
     36 Cl1         9.6335   -8.4425    7.2202 Cl        1 <0>        -0.0748
     37 H2         -0.6915   -4.9304    0.5241 H         1 <0>         0.0647
     38 H3         -1.2896   -6.4903    1.1383 H         1 <0>         0.0714
     39 H4         -1.5808   -4.9985    2.0645 H         1 <0>         0.0555
     40 H5          0.8643   -7.5599    1.1450 H         1 <0>         0.1257
     41 H6          2.9682   -7.9418    2.3105 H         1 <0>         0.1199
     42 H7         -0.8869   -3.6605    3.0937 H         1 <0>         0.4163
     43 H8          2.9903   -0.1976    3.6395 H         1 <0>         0.1374
     44 H9          2.0638    0.4092    5.8616 H         1 <0>         0.1489
     45 H10         0.2336   -0.9237    6.8159 H         1 <0>         0.1691
     46 H11         2.5169    1.3895   -0.6954 H         1 <0>         0.2333
     47 H12         3.1413   -4.9539    0.4695 H         1 <0>         0.2008
     48 H13         1.9397   -3.2169    5.0064 H         1 <0>         0.1343
     49 H14         4.0533   -3.6696    6.1268 H         1 <0>         0.1445
     50 H15         4.5923   -8.0481    3.2296 H         1 <0>         0.4189
     51 H16         5.1068   -6.8705    6.5135 H         1 <0>         0.1440
     52 H17         7.1132   -7.2914    7.8751 H         1 <0>         0.1335
     53 H18         9.0841   -8.9503    4.4731 H         1 <0>         0.1349
     54 H19         7.0780   -8.5436    3.1067 H         1 <0>         0.1324
@<TRIPOS>BOND
     1    1    2 1
     2    1   37 1
     3    1   38 1
     4    1   39 1
     5    2    7 ar
     6    2    3 ar
     7    3    4 ar
     8    3   40 1
     9    4    5 ar
    10    4   41 1
    11    5   28 ar
    12    5    6 ar
    13    6    7 ar
    14    6   25 ar
    15    7    8 1
    16    8    9 1
    17    8   42 1
    18    9   14 ar
    19    9   10 ar
    20   10   11 ar
    21   10   15 1
    22   11   12 ar
    23   11   43 1
    24   12   13 ar
    25   12   44 1
    26   13   14 ar
    27   13   45 1
    28   15   24 ar
    29   15   16 ar
    30   16   17 ar
    31   16   21 1
    32   17   18 1
    33   17   22 ar
    34   18   20 2
    35   19   21 1
    36   20   46 1
    37   20   21 1
    38   22   23 ar
    39   23   47 1
    40   23   24 ar
    41   25   26 ar
    42   25   48 1
    43   26   27 ar
    44   26   49 1
    45   27   28 ar
    46   28   29 1
    47   29   30 1
    48   29   50 1
    49   30   35 ar
    50   30   31 ar
    51   31   32 ar
    52   31   51 1
    53   32   33 ar
    54   32   52 1
    55   33   34 ar
    56   33   36 1
    57   34   35 ar
    58   34   53 1
    59   35   54 1
@<TRIPOS>MOLECULE
CHEMBL585921__1
   54    59     0     0     0
SMALL
USER_CHARGES

@<TRIPOS>ATOM
      1 C1         -2.1327    0.3657    0.7852 C.3       1 <0>        -0.1135
      2 C2         -0.9098   -0.3324    0.2483 C.ar      1 <0>        -0.0378
      3 C3         -0.9155   -0.8271   -1.0520 C.ar      1 <0>        -0.1149
      4 C4          0.1737   -1.4637   -1.5687 C.ar      1 <0>        -0.0826
      5 C5          1.3232   -1.6271   -0.7840 C.ar      1 <0>        -0.1321
      6 C6          1.3411   -1.1276    0.5416 C.ar      1 <0>         0.0175
      7 C7          0.2051   -0.4689    1.0500 C.ar      1 <0>         0.1435
      8 N1          0.2047    0.0350    2.3510 N.pl3     1 <0>        -0.6521
      9 C8          0.3638    1.3954    2.5677 C.ar      1 <0>         0.4491
     10 C9          0.5372    1.8783    3.8745 C.ar      1 <0>        -0.1928
     11 C10         0.6960    3.2523    4.0691 C.ar      1 <0>         0.0117
     12 C11         0.6754    4.0812    2.9594 C.ar      1 <0>        -0.2422
     13 C12         0.5001    3.5318    1.7031 C.ar      1 <0>         0.1772
     14 N2          0.3568    2.2303    1.5409 N.ar      1 <0>        -0.5388
     15 C13         0.5508    0.9487    5.0249 C.ar      1 <0>         0.3182
     16 C14         0.8751    1.4045    6.3163 C.ar      1 <0>        -0.0486
     17 C15         0.8708    0.4712    7.3698 C.ar      1 <0>         0.2834
     18 N3          1.2165    1.1733    8.4972 N.pl3     1 <0>        -0.5797
     19 H1          1.3025    0.8134    9.3939 H         1 <0>         0.4351
     20 C16         1.4170    2.4689    8.1257 C.2       1 <0>         0.2803
     21 N4          1.2161    2.6017    6.8460 N.2       1 <0>        -0.4701
     22 N5          0.5642   -0.7938    7.1097 N.ar      1 <0>        -0.5225
     23 C17         0.2674   -1.1757    5.8847 C.ar      1 <0>         0.3344
     24 N6          0.2513   -0.3392    4.8649 N.ar      1 <0>        -0.5490
     25 C18         2.5085   -1.3052    1.3066 C.ar      1 <0>        -0.2008
     26 C19         3.5703   -1.9469    0.7460 C.ar      1 <0>         0.1271
     27 N7          3.5354   -2.4076   -0.4973 N.ar      1 <0>        -0.5421
     28 C20         2.4768   -2.2789   -1.2742 C.ar      1 <0>         0.4253
     29 N8          2.4964   -2.7809   -2.5657 N.pl3     1 <0>        -0.6517
     30 C21         3.6036   -3.5053   -3.0174 C.ar      1 <0>         0.1696
     31 C22         4.3297   -4.2910   -2.1314 C.ar      1 <0>        -0.1048
     32 C23         5.4230   -5.0054   -2.5803 C.ar      1 <0>        -0.0892
     33 C24         5.7954   -4.9391   -3.9115 C.ar      1 <0>        -0.0565
     34 C25         5.0741   -4.1568   -4.7963 C.ar      1 <0>        -0.0881
     35 C26         3.9763   -3.4451   -4.3542 C.ar      1 <0>        -0.1431
     36 Cl1         7.1702   -5.8385   -4.4723 Cl        1 <0>        -0.0737
     37 H2         -2.0525    1.4361    0.5958 H         1 <0>         0.0788
     38 H3         -3.0213   -0.0254    0.2897 H         1 <0>         0.0668
     39 H4         -2.2088    0.1914    1.8585 H         1 <0>         0.0654
     40 H5         -1.7980   -0.7051   -1.6625 H         1 <0>         0.1302
     41 H6          0.1506   -1.8414   -2.5803 H         1 <0>         0.1250
     42 H7          0.0932   -0.5663    3.1039 H         1 <0>         0.4330
     43 H8          0.8313    3.6586    5.0606 H         1 <0>         0.1620
     44 H9          0.7951    5.1483    3.0748 H         1 <0>         0.1386
     45 H10         0.4838    4.1790    0.8387 H         1 <0>         0.1592
     46 H11         1.7009    3.2681    8.7943 H         1 <0>         0.2333
     47 H12         0.0228   -2.2129    5.7092 H         1 <0>         0.2096
     48 H13         2.5615   -0.9385    2.3210 H         1 <0>         0.1297
     49 H14         4.4677   -2.0847    1.3309 H         1 <0>         0.1530
     50 H15         1.7419   -2.6298   -3.1563 H         1 <0>         0.4190
     51 H16         4.0397   -4.3428   -1.0923 H         1 <0>         0.1478
     52 H17         5.9880   -5.6162   -1.8918 H         1 <0>         0.1345
     53 H18         5.3674   -4.1063   -5.8345 H         1 <0>         0.1356
     54 H19         3.4109   -2.8386   -5.0461 H         1 <0>         0.1326
@<TRIPOS>BOND
     1    1    2 1
     2    1   37 1
     3    1   38 1
     4    1   39 1
     5    2    7 ar
     6    2    3 ar
     7    3    4 ar
     8    3   40 1
     9    4    5 ar
    10    4   41 1
    11    5   28 ar
    12    5    6 ar
    13    6    7 ar
    14    6   25 ar
    15    7    8 1
    16    8    9 1
    17    8   42 1
    18    9   14 ar
    19    9   10 ar
    20   10   11 ar
    21   10   15 1
    22   11   12 ar
    23   11   43 1
    24   12   13 ar
    25   12   44 1
    26   13   14 ar
    27   13   45 1
    28   15   24 ar
    29   15   16 ar
    30   16   21 1
    31   16   17 ar
    32   17   18 1
    33   17   22 ar
    34   18   19 1
    35   18   20 1
    36   20   21 2
    37   20   46 1
    38   22   23 ar
    39   23   24 ar
    40   23   47 1
    41   25   26 ar
    42   25   48 1
    43   26   27 ar
    44   26   49 1
    45   27   28 ar
    46   28   29 1
    47   29   30 1
    48   29   50 1
    49   30   35 ar
    50   30   31 ar
    51   31   32 ar
    52   31   51 1
    53   32   33 ar
    54   32   52 1
    55   33   34 ar
    56   33   36 1
    57   34   35 ar
    58   34   53 1
    59   35   54 1
@<TRIPOS>MOLECULE
CHEMBL248256
   50    53     0     0     0
SMALL
USER_CHARGES

@<TRIPOS>ATOM
      1 C1         -2.3795    1.4223   -0.0194 C.3       1 <0>        -0.1731
      2 C2         -2.3597   -0.0845   -0.0119 C.2       1 <0>         0.4995
      3 O1         -3.4018   -0.7046    0.0038 O.2       1 <0>        -0.4739
      4 N1         -1.1838   -0.7430   -0.0227 N.am      1 <0>        -0.6652
      5 C3         -1.1618   -2.1323    0.0908 C.ar      1 <0>         0.3603
      6 C4          0.0560   -2.7965    0.1852 C.ar      1 <0>        -0.1883
      7 C5          0.0634   -4.1755    0.2974 C.ar      1 <0>        -0.0354
      8 C6         -1.1525   -4.8455    0.3113 C.ar      1 <0>        -0.1848
      9 C7         -2.3243   -4.1217    0.2136 C.ar      1 <0>         0.1348
     10 N2         -2.3006   -2.8064    0.1131 N.ar      1 <0>        -0.4714
     11 C8          1.3619   -4.9332    0.4015 C.3       1 <0>         0.1571
     12 N3          1.7375   -5.0670    1.8112 N.pl3     1 <0>        -0.7205
     13 C9          2.9057   -5.7330    2.1584 C.ar      1 <0>         0.2841
     14 C10         3.7780   -6.1742    1.1709 C.ar      1 <0>        -0.2111
     15 C11         4.9381   -6.8351    1.5184 C.ar      1 <0>        -0.0329
     16 C12         5.2431   -7.0643    2.8510 C.ar      1 <0>        -0.1892
     17 C13         4.3908   -6.6345    3.8441 C.ar      1 <0>        -0.0322
     18 C14         3.2143   -5.9589    3.5089 C.ar      1 <0>        -0.2348
     19 C15         2.3005   -5.4912    4.5668 C.2       1 <0>         0.5763
     20 O2          1.3287   -4.8195    4.2777 O.2       1 <0>        -0.5283
     21 N4          2.5419   -5.8081    5.8543 N.am      1 <0>        -0.6660
     22 C16         1.6155   -5.4626    6.8459 C.ar      1 <0>         0.1718
     23 C17         2.0564   -5.0947    8.1103 C.ar      1 <0>        -0.1247
     24 C18         1.1435   -4.7534    9.0896 C.ar      1 <0>        -0.0583
     25 C19        -0.2141   -4.7767    8.8133 C.ar      1 <0>         0.0095
     26 C20        -0.6594   -5.1449    7.5459 C.ar      1 <0>         0.0506
     27 C21         0.2565   -5.4821    6.5634 C.ar      1 <0>        -0.0869
     28 O3         -2.0233   -5.0884    7.5292 O.3       1 <0>        -0.2838
     29 C22        -2.4249   -5.0786    8.9119 C.3       1 <0>         0.5709
     30 O4         -1.3000   -4.4895    9.5906 O.3       1 <0>        -0.2847
     31 F1         -3.5699   -4.2937    9.0856 F         1 <0>        -0.1145
     32 F2         -2.6470   -6.3822    9.3685 F         1 <0>        -0.1523
     33 H1         -3.4118    1.7722   -0.0088 H         1 <0>         0.0979
     34 H2         -1.8599    1.7969    0.8625 H         1 <0>         0.0913
     35 H3         -1.8812    1.7878   -0.9173 H         1 <0>         0.0910
     36 H4         -0.3527   -0.2503   -0.1094 H         1 <0>         0.4181
     37 H5          0.9836   -2.2435    0.1708 H         1 <0>         0.1371
     38 H6         -1.1816   -5.9217    0.3973 H         1 <0>         0.1377
     39 H7         -3.2725   -4.6385    0.2237 H         1 <0>         0.1625
     40 H8          1.2411   -5.9233   -0.0379 H         1 <0>         0.0791
     41 H9          2.1425   -4.3914   -0.1326 H         1 <0>         0.0769
     42 H10         1.1702   -4.6905    2.5021 H         1 <0>         0.4214
     43 H11         3.5475   -5.9998    0.1303 H         1 <0>         0.1301
     44 H12         5.6127   -7.1763    0.7472 H         1 <0>         0.1284
     45 H13         6.1538   -7.5830    3.1120 H         1 <0>         0.1274
     46 H14         4.6335   -6.8158    4.8807 H         1 <0>         0.1240
     47 H15         3.3573   -6.2756    6.0941 H         1 <0>         0.4177
     48 H16         3.1140   -5.0757    8.3284 H         1 <0>         0.1516
     49 H17         1.4887   -4.4683   10.0725 H         1 <0>         0.1516
     50 H18        -0.0866   -5.7639    5.5789 H         1 <0>         0.1535
@<TRIPOS>BOND
     1    1    2 1
     2    1   33 1
     3    1   34 1
     4    1   35 1
     5    2    3 2
     6    2    4 am
     7    4    5 1
     8    4   36 1
     9    5   10 ar
    10    5    6 ar
    11    6    7 ar
    12    6   37 1
    13    7    8 ar
    14    7   11 1
    15    8    9 ar
    16    8   38 1
    17    9   10 ar
    18    9   39 1
    19   11   12 1
    20   11   40 1
    21   11   41 1
    22   12   13 1
    23   12   42 1
    24   13   18 ar
    25   13   14 ar
    26   14   15 ar
    27   14   43 1
    28   15   16 ar
    29   15   44 1
    30   16   17 ar
    31   16   45 1
    32   17   18 ar
    33   17   46 1
    34   18   19 1
    35   19   20 2
    36   19   21 am
    37   21   22 1
    38   21   47 1
    39   22   27 ar
    40   22   23 ar
    41   23   24 ar
    42   23   48 1
    43   24   25 ar
    44   24   49 1
    45   25   30 1
    46   25   26 ar
    47   26   27 ar
    48   26   28 1
    49   27   50 1
    50   28   29 1
    51   29   30 1
    52   29   31 1
    53   29   32 1
@<TRIPOS>MOLECULE
CHEMBL1076541
   72    77     0     0     0
SMALL
USER_CHARGES

@<TRIPOS>ATOM
      1 C1          1.8747    1.3100   -0.5060 C.3       1 <0>        -0.1888
      2 C2          1.7913   -0.2178   -0.5048 C.3       1 <0>        -0.0096
      3 N1          2.2824   -0.7360   -1.7886 N.4       1 <0>        -0.3878
      4 C3          1.3879   -0.2972   -2.8679 C.3       1 <0>        -0.0052
      5 C4          1.9096   -0.8210   -4.2077 C.3       1 <0>         0.0262
      6 N2          1.9716   -2.2889   -4.1659 N.3       1 <0>        -0.5369
      7 C5          2.8443   -2.7435   -3.0741 C.3       1 <0>         0.0239
      8 C6          2.3149   -2.2038   -1.7436 C.3       1 <0>        -0.0008
      9 C7          2.4150   -2.8340   -5.4559 C.3       1 <0>         0.1439
     10 C8          2.2333   -4.3300   -5.4582 C.2       1 <0>        -0.0349
     11 C9          1.1300   -4.9816   -5.8641 C.2       1 <0>        -0.1588
     12 C10         1.4137   -6.4098   -5.6862 C.2       1 <0>        -0.0857
     13 C11         2.6740   -6.4766   -5.1851 C.2       1 <0>        -0.0049
     14 O1          3.1486   -5.2266   -5.0610 O.3       1 <0>        -0.1852
     15 C12         0.5100   -7.5468   -5.9908 C.2       1 <0>        -0.1793
     16 C13        -0.8213   -7.6778   -5.5873 C.2       1 <0>         0.1074
     17 N3         -1.2944   -8.8131   -6.0449 N.2       1 <0>        -0.2977
     18 N4         -0.2926   -9.4709   -6.7661 N.pl3     1 <0>        -0.3015
     19 C14         0.8313   -8.6842   -6.7408 C.2       1 <0>         0.2764
     20 N5          1.9500   -9.0694   -7.3619 N.2       1 <0>        -0.4666
     21 C15         2.0097  -10.2069   -8.0169 C.2       1 <0>         0.1892
     22 C16         0.8944  -11.0468   -8.0792 C.2       1 <0>        -0.2108
     23 C17        -0.2672  -10.6708   -7.4368 C.2       1 <0>         0.2491
     24 C18        -1.4661  -11.5324   -7.4839 C.ar      1 <0>        -0.0590
     25 C19        -2.6163  -11.0973   -8.1466 C.ar      1 <0>        -0.0846
     26 C20        -3.7345  -11.9043   -8.1894 C.ar      1 <0>        -0.0952
     27 C21        -3.7220  -13.1442   -7.5776 C.ar      1 <0>        -0.1183
     28 C22        -2.5828  -13.5865   -6.9156 C.ar      1 <0>         0.1474
     29 C23        -1.4518  -12.7859   -6.8716 C.ar      1 <0>        -0.0824
     30 N6         -2.5756  -14.8416   -6.2984 N.am      1 <0>        -0.6682
     31 C24        -1.8637  -15.0338   -5.1703 C.2       1 <0>         0.5641
     32 O2         -1.3062  -14.0949   -4.6361 O.2       1 <0>        -0.5084
     33 C25        -1.7608  -16.3862   -4.5826 C.ar      1 <0>        -0.1411
     34 C26        -2.3950  -17.4676   -5.1968 C.ar      1 <0>        -0.0533
     35 C27        -2.2946  -18.7271   -4.6435 C.ar      1 <0>        -0.1217
     36 C28        -1.5675  -18.9199   -3.4819 C.ar      1 <0>        -0.0402
     37 C29        -0.9366  -17.8526   -2.8682 C.ar      1 <0>        -0.1882
     38 C30        -1.0243  -16.5886   -3.4144 C.ar      1 <0>        -0.0068
     39 C31        -0.1470  -18.0720   -1.6035 C.3       1 <0>         0.5100
     40 F1         -0.1990  -19.4246   -1.2501 F         1 <0>        -0.1730
     41 F2          1.1839  -17.6956   -1.8135 F         1 <0>        -0.1730
     42 F3         -0.6931  -17.2994   -0.5729 F         1 <0>        -0.1728
     43 H1          2.9106    1.6172   -0.6494 H         1 <0>         0.0797
     44 H2          1.2626    1.7066   -1.3160 H         1 <0>         0.0804
     45 H3          1.5103    1.6945    0.4466 H         1 <0>         0.1066
     46 H4          2.4034   -0.6144    0.3052 H         1 <0>         0.1305
     47 H5          0.7553   -0.5250   -0.3614 H         1 <0>         0.1300
     48 H6          0.3858   -0.6875   -2.6905 H         1 <0>         0.1382
     49 H7          1.3545    0.7921   -2.8918 H         1 <0>         0.1374
     50 H8          1.2378   -0.5081   -5.0070 H         1 <0>         0.1260
     51 H9          2.9062   -0.4200   -4.3919 H         1 <0>         0.0629
     52 H10         2.8544   -3.8331   -3.0463 H         1 <0>         0.1255
     53 H11         3.8563   -2.3741   -3.2396 H         1 <0>         0.0628
     54 H12         2.9688   -2.5281   -0.9340 H         1 <0>         0.1356
     55 H13         1.3080   -2.5844   -1.5720 H         1 <0>         0.1378
     56 H14         1.8228   -2.3948   -6.2588 H         1 <0>         0.1161
     57 H15         3.4676   -2.5956   -5.6086 H         1 <0>         0.0642
     58 H16         0.2192   -4.5427   -6.2437 H         1 <0>         0.1510
     59 H17         3.2061   -7.3820   -4.9331 H         1 <0>         0.2042
     60 H18        -1.3712   -6.9617   -4.9947 H         1 <0>         0.1976
     61 H19         2.9263  -10.4945   -8.5105 H         1 <0>         0.1864
     62 H20         0.9432  -11.9816   -8.6179 H         1 <0>         0.1714
     63 H21        -2.6303  -10.1292   -8.6251 H         1 <0>         0.1261
     64 H22        -4.6228  -11.5662   -8.7023 H         1 <0>         0.1384
     65 H23        -4.6008  -13.7710   -7.6140 H         1 <0>         0.1354
     66 H24        -0.5641  -13.1297   -6.3615 H         1 <0>         0.1410
     67 H25        -3.0830  -15.5738   -6.6824 H         1 <0>         0.4144
     68 H26        -2.9633  -17.3184   -6.1030 H         1 <0>         0.1377
     69 H27        -2.7847  -19.5646   -5.1176 H         1 <0>         0.1481
     70 H28        -1.4926  -19.9080   -3.0523 H         1 <0>         0.1489
     71 H29        -0.5276  -15.7569   -2.9369 H         1 <0>         0.1487
     72 H30         3.2126   -0.3843   -1.9594 H         1 <0>         0.4200
@<TRIPOS>BOND
     1    1    2 1
     2    1   43 1
     3    1   44 1
     4    1   45 1
     5    2    3 1
     6    2   46 1
     7    2   47 1
     8    3    8 1
     9    3    4 1
    10    3   72 1
    11    4    5 1
    12    4   48 1
    13    4   49 1
    14    5    6 1
    15    5   50 1
    16    5   51 1
    17    6    7 1
    18    6    9 1
    19    7    8 1
    20    7   52 1
    21    7   53 1
    22    8   54 1
    23    8   55 1
    24    9   10 1
    25    9   56 1
    26    9   57 1
    27   10   14 1
    28   10   11 2
    29   11   12 1
    30   11   58 1
    31   12   13 2
    32   12   15 1
    33   13   14 1
    34   13   59 1
    35   15   19 2
    36   15   16 1
    37   16   17 2
    38   16   60 1
    39   17   18 1
    40   18   23 1
    41   18   19 1
    42   19   20 1
    43   20   21 2
    44   21   22 1
    45   21   61 1
    46   22   23 2
    47   22   62 1
    48   23   24 1
    49   24   29 ar
    50   24   25 ar
    51   25   26 ar
    52   25   63 1
    53   26   27 ar
    54   26   64 1
    55   27   28 ar
    56   27   65 1
    57   28   29 ar
    58   28   30 1
    59   29   66 1
    60   30   31 am
    61   30   67 1
    62   31   32 2
    63   31   33 1
    64   33   38 ar
    65   33   34 ar
    66   34   35 ar
    67   34   68 1
    68   35   36 ar
    69   35   69 1
    70   36   37 ar
    71   36   70 1
    72   37   38 ar
    73   37   39 1
    74   38   71 1
    75   39   40 1
    76   39   41 1
    77   39   42 1
@<TRIPOS>MOLECULE
CHEMBL1076541__1
   72    77     0     0     0
SMALL
USER_CHARGES

@<TRIPOS>ATOM
      1 C1         -1.4396    1.4794   -1.3949 C.3       1 <0>        -0.1552
      2 C2         -1.3364   -0.0456   -1.3270 C.3       1 <0>         0.0501
      3 N1         -2.6727   -0.6179   -1.1152 N.3       1 <0>        -0.5400
      4 C3         -3.2001   -0.2493    0.2062 C.3       1 <0>         0.0220
      5 C4         -4.6139   -0.8135    0.3633 C.3       1 <0>        -0.0024
      6 N2         -4.5763   -2.2751    0.2224 N.4       1 <0>        -0.3886
      7 C5         -4.0707   -2.6274   -1.1109 C.3       1 <0>        -0.0024
      8 C6         -2.6525   -2.0782   -1.2803 C.3       1 <0>         0.0276
      9 C7         -5.9309   -2.8179    0.3913 C.3       1 <0>         0.0922
     10 C8         -5.8749   -4.3237    0.3693 C.2       1 <0>        -0.1035
     11 C9         -5.7117   -5.1145    1.4437 C.2       1 <0>        -0.1314
     12 C10        -5.7208   -6.4919    0.9390 C.2       1 <0>        -0.0812
     13 C11        -5.8905   -6.3920   -0.4045 C.2       1 <0>         0.0268
     14 O1         -5.9858   -5.0915   -0.7251 O.3       1 <0>        -0.1724
     15 C12        -5.5747   -7.7372    1.7329 C.2       1 <0>        -0.1970
     16 C13        -4.5822   -8.0044    2.6794 C.2       1 <0>         0.1101
     17 N3         -4.7776   -9.2045    3.1729 N.2       1 <0>        -0.2944
     18 N4         -5.9052   -9.7713    2.5697 N.pl3     1 <0>        -0.3002
     19 C14        -6.4091   -8.8597    1.6766 C.2       1 <0>         0.2849
     20 N5         -7.4998   -9.1384    0.9567 N.2       1 <0>        -0.4723
     21 C15        -8.1249  -10.2874    1.0820 C.2       1 <0>         0.1960
     22 C16        -7.6586  -11.2523    1.9791 C.2       1 <0>        -0.2094
     23 C17        -6.5287  -10.9868    2.7248 C.2       1 <0>         0.2534
     24 C18        -6.0092  -11.9823    3.6846 C.ar      1 <0>        -0.0629
     25 C19        -6.0269  -11.7106    5.0547 C.ar      1 <0>        -0.0846
     26 C20        -5.5415  -12.6424    5.9489 C.ar      1 <0>        -0.0948
     27 C21        -5.0362  -13.8463    5.4941 C.ar      1 <0>        -0.1167
     28 C22        -5.0140  -14.1265    4.1330 C.ar      1 <0>         0.1487
     29 C23        -5.5045  -13.1996    3.2263 C.ar      1 <0>        -0.0818
     30 N6         -4.5016  -15.3460    3.6783 N.am      1 <0>        -0.6686
     31 C24        -3.8602  -15.4081    2.4945 C.2       1 <0>         0.5651
     32 O2         -3.6423  -14.3899    1.8672 O.2       1 <0>        -0.5092
     33 C25        -3.4217  -16.7142    1.9591 C.ar      1 <0>        -0.1421
     34 C26        -3.6755  -17.8860    2.6743 C.ar      1 <0>        -0.0533
     35 C27        -3.2641  -19.1016    2.1688 C.ar      1 <0>        -0.1214
     36 C28        -2.6007  -19.1613    0.9558 C.ar      1 <0>        -0.0395
     37 C29        -2.3461  -18.0039    0.2421 C.ar      1 <0>        -0.1879
     38 C30        -2.7573  -16.7820    0.7336 C.ar      1 <0>        -0.0066
     39 C31        -1.6230  -18.0785   -1.0780 C.3       1 <0>         0.5099
     40 F1         -1.3151  -19.4124   -1.3664 F         1 <0>        -0.1727
     41 F2         -2.4409  -17.5599   -2.0877 F         1 <0>        -0.1731
     42 F3         -0.4418  -17.3324   -1.0055 F         1 <0>        -0.1726
     43 H1         -0.4481    1.9040   -1.5521 H         1 <0>         0.0709
     44 H2         -2.0915    1.7630   -2.2212 H         1 <0>         0.0691
     45 H3         -1.8528    1.8576   -0.4598 H         1 <0>         0.0559
     46 H4         -0.9232   -0.4238   -2.2621 H         1 <0>         0.0885
     47 H5         -0.6845   -0.3292   -0.5007 H         1 <0>         0.0458
     48 H6         -2.5558   -0.6612    0.9829 H         1 <0>         0.0604
     49 H7         -3.2299    0.8366    0.2959 H         1 <0>         0.1265
     50 H8         -5.0015   -0.5533    1.3483 H         1 <0>         0.1377
     51 H9         -5.2612   -0.3909   -0.4051 H         1 <0>         0.1399
     52 H10        -4.0557   -3.7119   -1.2189 H         1 <0>         0.1343
     53 H11        -4.7208   -2.1955   -1.8718 H         1 <0>         0.1388
     54 H12        -2.2827   -2.3267   -2.2751 H         1 <0>         0.1231
     55 H13        -1.9991   -2.5202   -0.5281 H         1 <0>         0.0596
     56 H14        -6.3401   -2.4835    1.3446 H         1 <0>         0.1558
     57 H15        -6.5672   -2.4661   -0.4208 H         1 <0>         0.1454
     58 H16        -5.5966   -4.7997    2.4704 H         1 <0>         0.1614
     59 H17        -5.9441   -7.2188   -1.0974 H         1 <0>         0.2151
     60 H18        -3.7840   -7.3328    2.9590 H         1 <0>         0.1976
     61 H19        -9.0046  -10.4872    0.4883 H         1 <0>         0.1887
     62 H20        -8.1725  -12.1966    2.0824 H         1 <0>         0.1738
     63 H21        -6.4202  -10.7711    5.4140 H         1 <0>         0.1258
     64 H22        -5.5560  -12.4305    7.0078 H         1 <0>         0.1390
     65 H23        -4.6570  -14.5714    6.1990 H         1 <0>         0.1363
     66 H24        -5.4922  -13.4173    2.1685 H         1 <0>         0.1414
     67 H25        -4.6079  -16.1470    4.2149 H         1 <0>         0.4150
     68 H26        -4.1926  -17.8408    3.6215 H         1 <0>         0.1377
     69 H27        -3.4598  -20.0089    2.7211 H         1 <0>         0.1483
     70 H28        -2.2801  -20.1156    0.5648 H         1 <0>         0.1493
     71 H29        -2.5618  -15.8797    0.1733 H         1 <0>         0.1486
     72 H30        -3.9679   -2.6651    0.9265 H         1 <0>         0.4213
@<TRIPOS>BOND
     1    1    2 1
     2    1   43 1
     3    1   44 1
     4    1   45 1
     5    2    3 1
     6    2   46 1
     7    2   47 1
     8    3    8 1
     9    3    4 1
    10    4    5 1
    11    4   48 1
    12    4   49 1
    13    5    6 1
    14    5   50 1
    15    5   51 1
    16    6    7 1
    17    6    9 1
    18    6   72 1
    19    7    8 1
    20    7   52 1
    21    7   53 1
    22    8   54 1
    23    8   55 1
    24    9   10 1
    25    9   56 1
    26    9   57 1
    27   10   14 1
    28   10   11 2
    29   11   12 1
    30   11   58 1
    31   12   13 2
    32   12   15 1
    33   13   14 1
    34   13   59 1
    35   15   19 2
    36   15   16 1
    37   16   17 2
    38   16   60 1
    39   17   18 1
    40   18   23 1
    41   18   19 1
    42   19   20 1
    43   20   21 2
    44   21   22 1
    45   21   61 1
    46   22   23 2
    47   22   62 1
    48   23   24 1
    49   24   29 ar
    50   24   25 ar
    51   25   26 ar
    52   25   63 1
    53   26   27 ar
    54   26   64 1
    55   27   28 ar
    56   27   65 1
    57   28   29 ar
    58   28   30 1
    59   29   66 1
    60   30   31 am
    61   30   67 1
    62   31   32 2
    63   31   33 1
    64   33   38 ar
    65   33   34 ar
    66   34   35 ar
    67   34   68 1
    68   35   36 ar
    69   35   69 1
    70   36   37 ar
    71   36   70 1
    72   37   38 ar
    73   37   39 1
    74   38   71 1
    75   39   40 1
    76   39   41 1
    77   39   42 1
@<TRIPOS>MOLECULE
CHEMBL1081818
   64    69     0     0     0
SMALL
USER_CHARGES

@<TRIPOS>ATOM
      1 C1          0.0046    1.3801    0.1752 C.ar      1 <0>        -0.0948
      2 C2          1.1739    2.0891   -0.0114 C.ar      1 <0>        -0.0844
      3 C3          2.3789    1.4100   -0.2040 C.ar      1 <0>        -0.0620
      4 C4          2.3950    0.0146   -0.2070 C.ar      1 <0>        -0.0824
      5 C5          1.2151   -0.6877   -0.0188 C.ar      1 <0>         0.1485
      6 C6          0.0208   -0.0020    0.1722 C.ar      1 <0>        -0.1168
      7 N1          1.2258   -2.0863   -0.0209 N.am      1 <0>        -0.6688
      8 C7          2.2946   -2.7528    0.4586 C.2       1 <0>         0.5654
      9 O1          3.2074   -2.1426    0.9804 O.2       1 <0>        -0.5087
     10 C8          2.3569   -4.2256    0.3500 C.ar      1 <0>        -0.1424
     11 C9          1.3129   -4.9289   -0.2539 C.ar      1 <0>        -0.0539
     12 C10         1.3773   -6.3032   -0.3519 C.ar      1 <0>        -0.1219
     13 C11         2.4734   -6.9850    0.1470 C.ar      1 <0>        -0.0397
     14 C12         3.5113   -6.2942    0.7465 C.ar      1 <0>        -0.1879
     15 C13         3.4623   -4.9188    0.8455 C.ar      1 <0>        -0.0060
     16 C14         4.7007   -7.0450    1.2874 C.3       1 <0>         0.5100
     17 F1          4.5262   -8.4156    1.0678 F         1 <0>        -0.1730
     18 F2          5.8608   -6.6124    0.6362 F         1 <0>        -0.1732
     19 F3          4.8192   -6.8041    2.6604 F         1 <0>        -0.1718
     20 C15         3.6320    2.1661   -0.4045 C.2       1 <0>         0.2489
     21 C16         4.6539    2.0906    0.5190 C.2       1 <0>        -0.2034
     22 C17         5.8262    2.8190    0.2987 C.2       1 <0>         0.1968
     23 N2          5.9530    3.5666   -0.7744 N.2       1 <0>        -0.4729
     24 C18         4.9743    3.6524   -1.6800 C.2       1 <0>         0.2852
     25 N3          3.8043    2.9542   -1.5178 N.pl3     1 <0>        -0.3009
     26 N4          2.9820    3.2320   -2.6148 N.2       1 <0>        -0.2972
     27 C19         3.6061    4.0554   -3.4237 C.2       1 <0>         0.1101
     28 C20         4.8577    4.3600   -2.8821 C.2       1 <0>        -0.1979
     29 C21         5.8807    5.2541   -3.4792 C.2       1 <0>        -0.0811
     30 C22         6.3765    5.2337   -4.8597 C.2       1 <0>        -0.1332
     31 C23         7.2876    6.2184   -4.9421 C.2       1 <0>        -0.1025
     32 O2          7.3850    6.8241   -3.7491 O.3       1 <0>        -0.1722
     33 C24         6.5466    6.2639   -2.8622 C.2       1 <0>         0.0257
     34 C25         8.0733    6.5827   -6.1753 C.3       1 <0>         0.0955
     35 N5          7.3339    7.5906   -6.9470 N.4       1 <0>        -0.3968
     36 C26         7.3027    8.8793   -6.2091 C.3       1 <0>        -0.0042
     37 C27         7.0284    9.9196   -7.3240 C.3       1 <0>        -0.1450
     38 C28         7.8441    9.3709   -8.5171 C.3       1 <0>        -0.1446
     39 C29         8.0324    7.8717   -8.2200 C.3       1 <0>        -0.0088
     40 H1         -0.9256    1.9071    0.3285 H         1 <0>         0.1391
     41 H2          1.1570    3.1690   -0.0087 H         1 <0>         0.1260
     42 H3          3.3237   -0.5163   -0.3559 H         1 <0>         0.1415
     43 H4         -0.8975   -0.5512    0.3188 H         1 <0>         0.1362
     44 H5          0.4640   -2.5766   -0.3675 H         1 <0>         0.4147
     45 H6          0.4567   -4.3981   -0.6430 H         1 <0>         0.1371
     46 H7          0.5704   -6.8485   -0.8188 H         1 <0>         0.1479
     47 H8          2.5186   -8.0611    0.0683 H         1 <0>         0.1491
     48 H9          4.2754   -4.3803    1.3094 H         1 <0>         0.1499
     49 H10         4.5493    1.4767    1.4014 H         1 <0>         0.1761
     50 H11         6.6328    2.7673    1.0151 H         1 <0>         0.1893
     51 H12         3.2126    4.4425   -4.3520 H         1 <0>         0.1977
     52 H13         6.0713    4.5635   -5.6496 H         1 <0>         0.1611
     53 H14         6.4245    6.5641   -1.8320 H         1 <0>         0.2147
     54 H15         9.0419    6.9880   -5.8825 H         1 <0>         0.1433
     55 H16         8.2217    5.6932   -6.7876 H         1 <0>         0.1541
     56 H17         6.4981    8.8822   -5.4738 H         1 <0>         0.1331
     57 H18         8.2631    9.0720   -5.7309 H         1 <0>         0.1344
     58 H19         5.9663    9.9544   -7.5663 H         1 <0>         0.0974
     59 H20         7.3905   10.9048   -7.0298 H         1 <0>         0.1165
     60 H21         7.2916    9.5058   -9.4470 H         1 <0>         0.1053
     61 H22         8.8116    9.8695   -8.5752 H         1 <0>         0.1043
     62 H23         9.0935    7.6434   -8.1196 H         1 <0>         0.1326
     63 H24         7.5961    7.2765   -9.0222 H         1 <0>         0.1338
     64 H25         6.3947    7.2699   -7.1289 H         1 <0>         0.4276
@<TRIPOS>BOND
     1    1    6 ar
     2    1    2 ar
     3    1   40 1
     4    2    3 ar
     5    2   41 1
     6    3    4 ar
     7    3   20 1
     8    4    5 ar
     9    4   42 1
    10    5    6 ar
    11    5    7 1
    12    6   43 1
    13    7    8 am
    14    7   44 1
    15    8    9 2
    16    8   10 1
    17   10   15 ar
    18   10   11 ar
    19   11   12 ar
    20   11   45 1
    21   12   13 ar
    22   12   46 1
    23   13   14 ar
    24   13   47 1
    25   14   15 ar
    26   14   16 1
    27   15   48 1
    28   16   17 1
    29   16   18 1
    30   16   19 1
    31   20   25 1
    32   20   21 2
    33   21   22 1
    34   21   49 1
    35   22   23 2
    36   22   50 1
    37   23   24 1
    38   24   28 2
    39   24   25 1
    40   25   26 1
    41   26   27 2
    42   27   28 1
    43   27   51 1
    44   28   29 1
    45   29   33 2
    46   29   30 1
    47   30   31 2
    48   30   52 1
    49   31   32 1
    50   31   34 1
    51   32   33 1
    52   33   53 1
    53   34   35 1
    54   34   54 1
    55   34   55 1
    56   35   39 1
    57   35   36 1
    58   35   64 1
    59   36   37 1
    60   36   56 1
    61   36   57 1
    62   37   38 1
    63   37   58 1
    64   37   59 1
    65   38   39 1
    66   38   60 1
    67   38   61 1
    68   39   62 1
    69   39   63 1
@<TRIPOS>MOLECULE
CHEMBL1081817
   48    52     0     0     0
SMALL
USER_CHARGES

@<TRIPOS>ATOM
      1 C1          0.0046    1.3801    0.1752 C.ar      1 <0>        -0.0961
      2 C2          1.1739    2.0891   -0.0114 C.ar      1 <0>        -0.0842
      3 C3          2.3789    1.4100   -0.2040 C.ar      1 <0>        -0.0530
      4 C4          2.3950    0.0146   -0.2070 C.ar      1 <0>        -0.0830
      5 C5          1.2151   -0.6877   -0.0188 C.ar      1 <0>         0.1451
      6 C6          0.0208   -0.0020    0.1722 C.ar      1 <0>        -0.1205
      7 N1          1.2258   -2.0863   -0.0209 N.am      1 <0>        -0.6677
      8 C7          2.2946   -2.7528    0.4586 C.2       1 <0>         0.5631
      9 O1          3.2074   -2.1426    0.9804 O.2       1 <0>        -0.5070
     10 C8          2.3569   -4.2256    0.3500 C.ar      1 <0>        -0.1395
     11 C9          1.3129   -4.9289   -0.2539 C.ar      1 <0>        -0.0540
     12 C10         1.3773   -6.3032   -0.3519 C.ar      1 <0>        -0.1227
     13 C11         2.4734   -6.9850    0.1470 C.ar      1 <0>        -0.0417
     14 C12         3.5113   -6.2942    0.7465 C.ar      1 <0>        -0.1885
     15 C13         3.4623   -4.9188    0.8455 C.ar      1 <0>        -0.0063
     16 C14         4.7007   -7.0450    1.2874 C.3       1 <0>         0.5102
     17 F1          4.5262   -8.4156    1.0678 F         1 <0>        -0.1742
     18 F2          5.8608   -6.6124    0.6362 F         1 <0>        -0.1725
     19 F3          4.8192   -6.8041    2.6604 F         1 <0>        -0.1723
     20 C15         3.6320    2.1661   -0.4045 C.2       1 <0>         0.2392
     21 C16         4.6539    2.0906    0.5190 C.2       1 <0>        -0.2062
     22 C17         5.8262    2.8190    0.2987 C.2       1 <0>         0.1830
     23 N2          5.9530    3.5666   -0.7744 N.2       1 <0>        -0.4598
     24 C18         4.9743    3.6524   -1.6800 C.2       1 <0>         0.2694
     25 N3          3.8043    2.9542   -1.5178 N.pl3     1 <0>        -0.3040
     26 N4          2.9820    3.2320   -2.6148 N.2       1 <0>        -0.3029
     27 C19         3.6061    4.0554   -3.4237 C.2       1 <0>         0.1056
     28 C20         4.8577    4.3600   -2.8821 C.2       1 <0>        -0.1628
     29 C21         5.8807    5.2541   -3.4792 C.2       1 <0>        -0.0986
     30 C22         6.3765    5.2337   -4.8597 C.2       1 <0>        -0.2070
     31 C23         7.2876    6.2184   -4.9421 C.2       1 <0>        -0.0355
     32 O2          7.3850    6.8241   -3.7491 O.3       1 <0>        -0.1829
     33 C24         6.5466    6.2639   -2.8622 C.2       1 <0>        -0.0155
     34 H1         -0.9256    1.9071    0.3285 H         1 <0>         0.1375
     35 H2          1.1570    3.1690   -0.0087 H         1 <0>         0.1268
     36 H3          3.3237   -0.5163   -0.3559 H         1 <0>         0.1411
     37 H4         -0.8975   -0.5512    0.3188 H         1 <0>         0.1338
     38 H5          0.4640   -2.5766   -0.3675 H         1 <0>         0.4133
     39 H6          0.4567   -4.3981   -0.6430 H         1 <0>         0.1373
     40 H7          0.5704   -6.8485   -0.8188 H         1 <0>         0.1469
     41 H8          2.5186   -8.0611    0.0683 H         1 <0>         0.1479
     42 H9          4.2754   -4.3803    1.3094 H         1 <0>         0.1503
     43 H10         4.5493    1.4767    1.4014 H         1 <0>         0.1710
     44 H11         6.6328    2.7673    1.0151 H         1 <0>         0.1851
     45 H12         3.2126    4.4425   -4.3520 H         1 <0>         0.1997
     46 H13         6.0713    4.5635   -5.6496 H         1 <0>         0.1494
     47 H14         7.8507    6.4795   -5.8259 H         1 <0>         0.2023
     48 H15         6.4245    6.5641   -1.8320 H         1 <0>         0.2003
@<TRIPOS>BOND
     1    1    6 ar
     2    1    2 ar
     3    1   34 1
     4    2    3 ar
     5    2   35 1
     6    3    4 ar
     7    3   20 1
     8    4    5 ar
     9    4   36 1
    10    5    6 ar
    11    5    7 1
    12    6   37 1
    13    7    8 am
    14    7   38 1
    15    8    9 2
    16    8   10 1
    17   10   15 ar
    18   10   11 ar
    19   11   12 ar
    20   11   39 1
    21   12   13 ar
    22   12   40 1
    23   13   14 ar
    24   13   41 1
    25   14   15 ar
    26   14   16 1
    27   15   42 1
    28   16   17 1
    29   16   18 1
    30   16   19 1
    31   20   25 1
    32   20   21 2
    33   21   22 1
    34   21   43 1
    35   22   23 2
    36   22   44 1
    37   23   24 1
    38   24   28 2
    39   24   25 1
    40   25   26 1
    41   26   27 2
    42   27   28 1
    43   27   45 1
    44   28   29 1
    45   29   33 2
    46   29   30 1
    47   30   31 2
    48   30   46 1
    49   31   32 1
    50   31   47 1
    51   32   33 1
    52   33   48 1
@<TRIPOS>MOLECULE
CHEMBL1081647
   67    72     0     0     0
SMALL
USER_CHARGES

@<TRIPOS>ATOM
      1 C1          0.0046    1.3801    0.1752 C.ar      1 <0>        -0.0953
      2 C2          1.1739    2.0891   -0.0114 C.ar      1 <0>        -0.0845
      3 C3          2.3789    1.4100   -0.2040 C.ar      1 <0>        -0.0586
      4 C4          2.3950    0.0146   -0.2069 C.ar      1 <0>        -0.0830
      5 C5          1.2151   -0.6877   -0.0186 C.ar      1 <0>         0.1473
      6 C6          0.0208   -0.0020    0.1722 C.ar      1 <0>        -0.1184
      7 N1          1.2258   -2.0863   -0.0207 N.am      1 <0>        -0.6685
      8 C7          2.2946   -2.7528    0.4589 C.2       1 <0>         0.5647
      9 O1          3.2074   -2.1426    0.9807 O.2       1 <0>        -0.5081
     10 C8          2.3569   -4.2256    0.3503 C.ar      1 <0>        -0.1416
     11 C9          1.3130   -4.9289   -0.2536 C.ar      1 <0>        -0.0540
     12 C10         1.3776   -6.3032   -0.3521 C.ar      1 <0>        -0.1221
     13 C11         2.4741   -6.9848    0.1461 C.ar      1 <0>        -0.0403
     14 C12         3.5119   -6.2940    0.7457 C.ar      1 <0>        -0.1880
     15 C13         3.4623   -4.9188    0.8459 C.ar      1 <0>        -0.0062
     16 C14         4.7018   -7.0448    1.2858 C.3       1 <0>         0.5100
     17 F1          4.5277   -8.4153    1.0654 F         1 <0>        -0.1732
     18 F2          5.8615   -6.6113    0.6344 F         1 <0>        -0.1732
     19 F3          4.8207   -6.8046    2.6589 F         1 <0>        -0.1718
     20 C15         3.6320    2.1661   -0.4044 C.2       1 <0>         0.2444
     21 C16         4.6539    2.0906    0.5190 C.2       1 <0>        -0.2040
     22 C17         5.8265    2.8185    0.2985 C.2       1 <0>         0.1901
     23 N2          5.9536    3.5658   -0.7747 N.2       1 <0>        -0.4657
     24 C18         4.9748    3.6516   -1.6805 C.2       1 <0>         0.2792
     25 N3          3.8043    2.9542   -1.5178 N.pl3     1 <0>        -0.3020
     26 N4          2.9821    3.2324   -2.6147 N.2       1 <0>        -0.3000
     27 C19         3.6069    4.0557   -3.4235 C.2       1 <0>         0.1018
     28 C20         4.8584    4.3591   -2.8822 C.2       1 <0>        -0.1773
     29 C21         5.8822    5.2533   -3.4797 C.2       1 <0>        -0.1136
     30 C22         6.5672    6.2915   -2.8194 C.2       1 <0>         0.0935
     31 N5          7.3844    6.8483   -3.6743 N.2       1 <0>        -0.3005
     32 N6          7.2550    6.1931   -4.9050 N.pl3     1 <0>        -0.3937
     33 C23         6.3342    5.2142   -4.7661 C.2       1 <0>         0.0583
     34 C24         7.9946    6.5099   -6.1293 C.3       1 <0>         0.1254
     35 C25         7.8016    7.9881   -6.4736 C.3       1 <0>        -0.0188
     36 N7          8.5432    8.3058   -7.7012 N.4       1 <0>        -0.3925
     37 C26         7.9157    7.6329   -8.8673 C.3       1 <0>        -0.0123
     38 C27         8.4109    8.4739  -10.0706 C.3       1 <0>        -0.1447
     39 C28         8.3990    9.9158   -9.5130 C.3       1 <0>        -0.1451
     40 C29         8.4661    9.7557   -7.9828 C.3       1 <0>        -0.0066
     41 H1         -0.9256    1.9071    0.3285 H         1 <0>         0.1383
     42 H2          1.1570    3.1690   -0.0087 H         1 <0>         0.1263
     43 H3          3.3237   -0.5163   -0.3557 H         1 <0>         0.1411
     44 H4         -0.8975   -0.5512    0.3191 H         1 <0>         0.1352
     45 H5          0.4640   -2.5767   -0.3673 H         1 <0>         0.4142
     46 H6          0.4566   -4.3981   -0.6424 H         1 <0>         0.1371
     47 H7          0.5706   -6.8485   -0.8187 H         1 <0>         0.1476
     48 H8          2.5196   -8.0609    0.0668 H         1 <0>         0.1487
     49 H9          4.2752   -4.3803    1.3102 H         1 <0>         0.1500
     50 H10         4.5491    1.4770    1.4016 H         1 <0>         0.1734
     51 H11         6.6330    2.7668    1.0150 H         1 <0>         0.1865
     52 H12         3.2138    4.4427   -4.3521 H         1 <0>         0.1961
     53 H13         6.4392    6.5783   -1.7861 H         1 <0>         0.1883
     54 H14         6.0123    4.5273   -5.5349 H         1 <0>         0.1790
     55 H15         9.0547    6.3080   -5.9759 H         1 <0>         0.1019
     56 H16         7.6223    5.8945   -6.9482 H         1 <0>         0.1123
     57 H17         6.7415    8.1900   -6.6270 H         1 <0>         0.1349
     58 H18         8.1739    8.6036   -5.6546 H         1 <0>         0.1437
     59 H19         8.2623    6.6027   -8.9493 H         1 <0>         0.1365
     60 H20         6.8288    7.6696   -8.7936 H         1 <0>         0.1353
     61 H21         9.4204    8.1797  -10.3575 H         1 <0>         0.0994
     62 H22         7.7265    8.3809  -10.9139 H         1 <0>         0.1176
     63 H23         9.2665   10.4682   -9.8740 H         1 <0>         0.1065
     64 H24         7.4789   10.4249   -9.8001 H         1 <0>         0.1044
     65 H25         7.5700   10.1756   -7.5259 H         1 <0>         0.1314
     66 H26         9.3533   10.2569   -7.5957 H         1 <0>         0.1345
     67 H27         9.5065    8.0198   -7.6102 H         1 <0>         0.4288
@<TRIPOS>BOND
     1    1    6 ar
     2    1    2 ar
     3    1   41 1
     4    2    3 ar
     5    2   42 1
     6    3    4 ar
     7    3   20 1
     8    4    5 ar
     9    4   43 1
    10    5    6 ar
    11    5    7 1
    12    6   44 1
    13    7    8 am
    14    7   45 1
    15    8    9 2
    16    8   10 1
    17   10   15 ar
    18   10   11 ar
    19   11   12 ar
    20   11   46 1
    21   12   13 ar
    22   12   47 1
    23   13   14 ar
    24   13   48 1
    25   14   15 ar
    26   14   16 1
    27   15   49 1
    28   16   17 1
    29   16   18 1
    30   16   19 1
    31   20   25 1
    32   20   21 2
    33   21   22 1
    34   21   50 1
    35   22   23 2
    36   22   51 1
    37   23   24 1
    38   24   28 2
    39   24   25 1
    40   25   26 1
    41   26   27 2
    42   27   28 1
    43   27   52 1
    44   28   29 1
    45   29   33 2
    46   29   30 1
    47   30   31 2
    48   30   53 1
    49   31   32 1
    50   32   33 1
    51   32   34 1
    52   33   54 1
    53   34   35 1
    54   34   55 1
    55   34   56 1
    56   35   36 1
    57   35   57 1
    58   35   58 1
    59   36   40 1
    60   36   37 1
    61   36   67 1
    62   37   38 1
    63   37   59 1
    64   37   60 1
    65   38   39 1
    66   38   61 1
    67   38   62 1
    68   39   40 1
    69   39   63 1
    70   39   64 1
    71   40   65 1
    72   40   66 1
@<TRIPOS>MOLECULE
CHEMBL381250
   38    41     0     0     0
SMALL
USER_CHARGES

@<TRIPOS>ATOM
      1 C1          0.0053    1.3808    0.4308 C.ar      1 <0>        -0.1660
      2 C2          1.1939    2.0721    0.2738 C.ar      1 <0>        -0.0314
      3 C3          2.3887    1.3431    0.2616 C.ar      1 <0>        -0.0723
      4 C4          2.3336   -0.0439    0.4075 C.ar      1 <0>         0.1136
      5 N1          1.1772   -0.6563    0.5541 N.ar      1 <0>        -0.4774
      6 C5          0.0355    0.0050    0.5694 C.ar      1 <0>         0.1094
      7 C6          3.6871    2.0306    0.0965 C.2       1 <0>         0.2679
      8 N2          4.9080    1.4195    0.0648 N.pl3     1 <0>        -0.5502
      9 H1          5.0777    0.4679    0.1453 H         1 <0>         0.4260
     10 C7          5.8513    2.4049   -0.1029 C.2       1 <0>         0.0485
     11 C8          5.1584    3.6029   -0.1685 C.2       1 <0>         0.0670
     12 N3          3.8497    3.3253   -0.0487 N.2       1 <0>        -0.4491
     13 C9          5.7533    4.9473   -0.3446 C.ar      1 <0>         0.0381
     14 C10         6.7945    5.1591   -1.2551 C.ar      1 <0>        -0.1541
     15 C11         7.3195    6.4274   -1.3873 C.ar      1 <0>         0.1028
     16 N4          6.8530    7.4320   -0.6699 N.ar      1 <0>        -0.4823
     17 C12         5.8725    7.2755    0.1996 C.ar      1 <0>         0.1007
     18 C13         5.2860    6.0423    0.3909 C.ar      1 <0>        -0.1461
     19 C14         7.3133    2.2230   -0.1948 C.ar      1 <0>        -0.0051
     20 C15         8.1689    3.0284    0.5610 C.ar      1 <0>        -0.0835
     21 C16         9.5345    2.8556    0.4726 C.ar      1 <0>        -0.0887
     22 C17        10.0610    1.8865   -0.3635 C.ar      1 <0>        -0.0551
     23 C18         9.2178    1.0812   -1.1193 C.ar      1 <0>         0.1234
     24 C19         7.8458    1.2417   -1.0331 C.ar      1 <0>        -0.1224
     25 O1          9.7405    0.1316   -1.9395 O.3       1 <0>        -0.4834
     26 Cl1        11.7810    1.6766   -0.4688 Cl        1 <0>        -0.0468
     27 H2         -0.9357    1.9105    0.4495 H         1 <0>         0.1458
     28 H3          1.1994    3.1464    0.1631 H         1 <0>         0.1502
     29 H4          3.2472   -0.6198    0.3997 H         1 <0>         0.1499
     30 H5         -0.8906   -0.5369    0.6925 H         1 <0>         0.1633
     31 H6          7.1815    4.3415   -1.8453 H         1 <0>         0.1329
     32 H7          8.1235    6.6008   -2.0872 H         1 <0>         0.1582
     33 H8          5.5218    8.1257    0.7657 H         1 <0>         0.1590
     34 H9          4.4807    5.9224    1.1005 H         1 <0>         0.1384
     35 H10         7.7613    3.7860    1.2139 H         1 <0>         0.1383
     36 H11        10.1950    3.4788    1.0573 H         1 <0>         0.1457
     37 H12         7.1892    0.6131   -1.6164 H         1 <0>         0.1386
     38 H13         9.8608   -0.7299   -1.5171 H         1 <0>         0.3961
@<TRIPOS>BOND
     1    1    6 ar
     2    1    2 ar
     3    1   27 1
     4    2    3 ar
     5    2   28 1
     6    3    4 ar
     7    3    7 1
     8    4    5 ar
     9    4   29 1
    10    5    6 ar
    11    6   30 1
    12    7   12 2
    13    7    8 1
    14    8    9 1
    15    8   10 1
    16   10   11 2
    17   10   19 1
    18   11   12 1
    19   11   13 1
    20   13   18 ar
    21   13   14 ar
    22   14   15 ar
    23   14   31 1
    24   15   16 ar
    25   15   32 1
    26   16   17 ar
    27   17   18 ar
    28   17   33 1
    29   18   34 1
    30   19   24 ar
    31   19   20 ar
    32   20   21 ar
    33   20   35 1
    34   21   22 ar
    35   21   36 1
    36   22   23 ar
    37   22   26 1
    38   23   24 ar
    39   23   25 1
    40   24   37 1
    41   25   38 1
@<TRIPOS>MOLECULE
CHEMBL381250__1
   38    41     0     0     0
SMALL
USER_CHARGES

@<TRIPOS>ATOM
      1 C1         -0.0167    1.3789    0.0096 C.ar      1 <0>        -0.1661
      2 C2          1.1808    2.0727    0.0019 C.ar      1 <0>        -0.0308
      3 C3          2.3725    1.3388   -0.0134 C.ar      1 <0>        -0.0735
      4 C4          2.3057   -0.0553   -0.0203 C.ar      1 <0>         0.1142
      5 N1          1.1412   -0.6698   -0.0124 N.ar      1 <0>        -0.4774
      6 C5          0.0021   -0.0041    0.0020 C.ar      1 <0>         0.1100
      7 C6          3.6801    2.0288   -0.0227 C.2       1 <0>         0.2717
      8 N2          3.8540    3.3310   -0.0173 N.2       1 <0>        -0.4522
      9 H1          5.0607    0.4583   -0.0341 H         1 <0>         0.4264
     10 C7          5.1666    3.6094   -0.0289 C.2       1 <0>         0.0769
     11 C8          5.8529    2.4060   -0.0423 C.2       1 <0>         0.0379
     12 N3          4.8980    1.4145   -0.0322 N.pl3     1 <0>        -0.5488
     13 C9          7.3164    2.2234   -0.0585 C.ar      1 <0>         0.0212
     14 C10         8.1285    2.9862   -0.9092 C.ar      1 <0>        -0.1434
     15 C11         9.4916    2.7825   -0.8909 C.ar      1 <0>         0.1080
     16 N4         10.0325    1.8849   -0.0884 N.ar      1 <0>        -0.4779
     17 C12         9.3053    1.1454    0.7282 C.ar      1 <0>         0.1080
     18 C13         7.9352    1.2862    0.7803 C.ar      1 <0>        -0.1647
     19 C14         5.7732    4.9613   -0.0283 C.ar      1 <0>         0.0122
     20 C15         6.9714    5.1900    0.6481 C.ar      1 <0>        -0.0986
     21 C16         7.5344    6.4499    0.6472 C.ar      1 <0>        -0.0928
     22 C17         6.9131    7.4888   -0.0230 C.ar      1 <0>        -0.0589
     23 C18         5.7193    7.2694   -0.6987 C.ar      1 <0>         0.1189
     24 C19         5.1510    6.0067   -0.7085 C.ar      1 <0>        -0.1040
     25 O1          5.1122    8.2929   -1.3554 O.3       1 <0>        -0.4842
     26 Cl1         7.6272    9.0711   -0.0191 Cl        1 <0>        -0.0531
     27 H2         -0.9559    1.9117    0.0259 H         1 <0>         0.1459
     28 H3          1.1953    3.1526    0.0072 H         1 <0>         0.1506
     29 H4          3.2169   -0.6349   -0.0324 H         1 <0>         0.1500
     30 H5         -0.9310   -0.5480    0.0080 H         1 <0>         0.1635
     31 H6          7.6928    3.7220   -1.5689 H         1 <0>         0.1401
     32 H7         10.1258    3.3652   -1.5425 H         1 <0>         0.1628
     33 H8          9.7911    0.4230    1.3673 H         1 <0>         0.1614
     34 H9          7.3470    0.6808    1.4540 H         1 <0>         0.1348
     35 H10         7.4583    4.3812    1.1727 H         1 <0>         0.1323
     36 H11         8.4622    6.6256    1.1713 H         1 <0>         0.1415
     37 H12         4.2257    5.8335   -1.2377 H         1 <0>         0.1441
     38 H13         5.3879    8.3872   -2.2775 H         1 <0>         0.3943
@<TRIPOS>BOND
     1    1    6 ar
     2    1    2 ar
     3    1   27 1
     4    2    3 ar
     5    2   28 1
     6    3    4 ar
     7    3    7 1
     8    4    5 ar
     9    4   29 1
    10    5    6 ar
    11    6   30 1
    12    7    8 2
    13    7   12 1
    14    8   10 1
    15    9   12 1
    16   10   19 1
    17   10   11 2
    18   11   13 1
    19   11   12 1
    20   13   18 ar
    21   13   14 ar
    22   14   15 ar
    23   14   31 1
    24   15   16 ar
    25   15   32 1
    26   16   17 ar
    27   17   18 ar
    28   17   33 1
    29   18   34 1
    30   19   24 ar
    31   19   20 ar
    32   20   21 ar
    33   20   35 1
    34   21   22 ar
    35   21   36 1
    36   22   23 ar
    37   22   26 1
    38   23   24 ar
    39   23   25 1
    40   24   37 1
    41   25   38 1
@<TRIPOS>MOLECULE
CHEMBL471723
   63    66     0     0     0
SMALL
USER_CHARGES

@<TRIPOS>ATOM
      1 C1         -0.9827    1.3073    0.0915 C.3       1 <0>         0.0926
      2 N1         -0.2837    0.0226    0.0061 N.pl3     1 <0>        -0.6397
      3 C2          0.3713   -0.5351    1.1918 C.3       1 <0>         0.0959
      4 C3         -0.2418   -0.6714   -1.2077 C.ar      1 <0>         0.2005
      5 C4          0.4160   -1.8922   -1.2873 C.ar      1 <0>        -0.1745
      6 C5          0.4569   -2.5773   -2.4851 C.ar      1 <0>        -0.0945
      7 C6         -0.1595   -2.0460   -3.6105 C.ar      1 <0>         0.0844
      8 C7         -0.8169   -0.8252   -3.5311 C.ar      1 <0>        -0.0774
      9 C8         -0.8628   -0.1427   -2.3320 C.ar      1 <0>        -0.1770
     10 N2         -0.1180   -2.7412   -4.8256 N.am      1 <0>        -0.6445
     11 C9         -0.2171   -2.0696   -5.9899 C.2       1 <0>         0.5704
     12 O1         -0.2338   -0.8543   -5.9909 O.2       1 <0>        -0.5126
     13 C10        -0.3057   -2.8127   -7.2683 C.ar      1 <0>         0.1136
     14 C11        -0.4021   -2.1130   -8.4669 C.ar      1 <0>        -0.1859
     15 C12        -0.4847   -2.8266   -9.6599 C.ar      1 <0>         0.1591
     16 C13        -0.4670   -4.2178   -9.6013 C.ar      1 <0>        -0.1746
     17 C14        -0.3689   -4.8419   -8.3711 C.ar      1 <0>         0.1361
     18 N3         -0.2870   -4.1406   -7.2602 N.ar      1 <0>        -0.4806
     19 O2         -0.5804   -2.1820  -10.8505 O.3       1 <0>        -0.2417
     20 C15        -0.4829   -0.8259  -10.8517 C.ar      1 <0>         0.0594
     21 C16         0.7116   -0.2162  -10.4961 C.ar      1 <0>        -0.1123
     22 C17         0.8112    1.1610  -10.4972 C.ar      1 <0>        -0.0978
     23 C18        -0.2843    1.9358  -10.8543 C.ar      1 <0>         0.1676
     24 C19        -1.4794    1.3251  -11.2101 C.ar      1 <0>        -0.1254
     25 C20        -1.5762   -0.0523  -11.2141 C.ar      1 <0>        -0.0927
     26 N4         -0.1839    3.3334  -10.8551 N.am      1 <0>        -0.6782
     27 C21         0.9747    3.9256  -11.2063 C.2       1 <0>         0.7072
     28 O3          1.9013    3.2533  -11.6161 O.2       1 <0>        -0.5486
     29 N5          1.1063    5.2629  -11.1031 N.am      1 <0>        -0.6797
     30 C22         2.2663    5.8904  -11.5725 C.ar      1 <0>         0.1701
     31 C23         2.9106    5.4053  -12.7032 C.ar      1 <0>        -0.0746
     32 C24         4.0545    6.0264  -13.1644 C.ar      1 <0>        -0.0871
     33 C25         4.5592    7.1310  -12.5007 C.ar      1 <0>        -0.0079
     34 C26         3.9196    7.6159  -11.3737 C.ar      1 <0>        -0.1563
     35 C27         2.7715    7.0021  -10.9118 C.ar      1 <0>        -0.0879
     36 C28         4.4725    8.8183  -10.6529 C.3       1 <0>         0.5112
     37 F1          3.6606    9.1171   -9.5535 F         1 <0>        -0.1743
     38 F2          5.7710    8.5413  -10.2120 F         1 <0>        -0.1671
     39 F3          4.4993    9.9127  -11.5240 F         1 <0>        -0.1677
     40 Cl1         5.9978    7.9091  -13.0828 Cl        1 <0>        -0.0395
     41 H1         -0.2875    2.1151   -0.1371 H         1 <0>         0.0477
     42 H2         -1.8047    1.3220   -0.6242 H         1 <0>         0.0683
     43 H3         -1.3760    1.4407    1.0993 H         1 <0>         0.0664
     44 H4          0.2329    0.1412    2.0353 H         1 <0>         0.0726
     45 H5         -0.0681   -1.5044    1.4275 H         1 <0>         0.0537
     46 H6          1.4364   -0.6572    0.9950 H         1 <0>         0.0536
     47 H7          0.8957   -2.3052   -0.4123 H         1 <0>         0.1257
     48 H8          0.9686   -3.5264   -2.5471 H         1 <0>         0.1262
     49 H9         -1.2956   -0.4118   -4.4064 H         1 <0>         0.1412
     50 H10        -1.3781    0.8044   -2.2691 H         1 <0>         0.1255
     51 H11        -0.0178   -3.7060   -4.8292 H         1 <0>         0.4200
     52 H12        -0.4132   -1.0331   -8.4721 H         1 <0>         0.1556
     53 H13        -0.5296   -4.8030  -10.5068 H         1 <0>         0.1530
     54 H14        -0.3549   -5.9207   -8.3214 H         1 <0>         0.1755
     55 H15         1.5635   -0.8189  -10.2180 H         1 <0>         0.1352
     56 H16         1.7409    1.6355  -10.2200 H         1 <0>         0.1443
     57 H17        -2.3318    1.9272  -11.4879 H         1 <0>         0.1391
     58 H18        -2.5044   -0.5276  -11.4951 H         1 <0>         0.1411
     59 H19        -0.9483    3.8747  -10.6030 H         1 <0>         0.4130
     60 H20         0.3972    5.7907  -10.7037 H         1 <0>         0.4148
     61 H21         2.5175    4.5429  -13.2211 H         1 <0>         0.1545
     62 H22         4.5559    5.6495  -14.0436 H         1 <0>         0.1523
     63 H23         2.2698    7.3839  -10.0349 H         1 <0>         0.1525
@<TRIPOS>BOND
     1    1    2 1
     2    1   41 1
     3    1   42 1
     4    1   43 1
     5    2    3 1
     6    2    4 1
     7    3   44 1
     8    3   45 1
     9    3   46 1
    10    4    9 ar
    11    4    5 ar
    12    5    6 ar
    13    5   47 1
    14    6    7 ar
    15    6   48 1
    16    7    8 ar
    17    7   10 1
    18    8    9 ar
    19    8   49 1
    20    9   50 1
    21   10   11 am
    22   10   51 1
    23   11   12 2
    24   11   13 1
    25   13   18 ar
    26   13   14 ar
    27   14   15 ar
    28   14   52 1
    29   15   16 ar
    30   15   19 1
    31   16   17 ar
    32   16   53 1
    33   17   18 ar
    34   17   54 1
    35   19   20 1
    36   20   25 ar
    37   20   21 ar
    38   21   22 ar
    39   21   55 1
    40   22   23 ar
    41   22   56 1
    42   23   24 ar
    43   23   26 1
    44   24   25 ar
    45   24   57 1
    46   25   58 1
    47   26   27 am
    48   26   59 1
    49   27   28 2
    50   27   29 am
    51   29   30 1
    52   29   60 1
    53   30   35 ar
    54   30   31 ar
    55   31   32 ar
    56   31   61 1
    57   32   33 ar
    58   32   62 1
    59   33   34 ar
    60   33   40 1
    61   34   35 ar
    62   34   36 1
    63   35   63 1
    64   36   37 1
    65   36   38 1
    66   36   39 1
@<TRIPOS>MOLECULE
CHEMBL1080268
   70    74     0     0     0
SMALL
USER_CHARGES

@<TRIPOS>ATOM
      1 C1         -0.4109   -0.0666   -1.2211 C.3       1 <0>        -0.0457
      2 N1         -0.4180   -1.5233   -1.0309 N.4       1 <0>        -0.3884
      3 C2         -1.8027   -1.9907   -0.8837 C.3       1 <0>        -0.0025
      4 C3         -1.8119   -3.5104   -0.7044 C.3       1 <0>         0.0248
      5 N2         -1.0276   -3.8650    0.4870 N.3       1 <0>        -0.5398
      6 C4          0.3549   -3.3814    0.3648 C.3       1 <0>         0.0196
      7 C5          0.3462   -1.8628    0.1766 C.3       1 <0>        -0.0028
      8 C6         -1.0593   -5.3141    0.7260 C.3       1 <0>         0.0534
      9 C7         -0.4506   -5.6183    2.0964 C.3       1 <0>        -0.1131
     10 C8         -0.4836   -7.1276    2.3453 C.3       1 <0>         0.0058
     11 C9          0.1020   -7.4203    3.6637 C.1       1 <0>        -0.1957
     12 C10         0.5690   -7.6538    4.7152 C.1       1 <0>        -0.0673
     13 C11         1.1387   -7.9386    5.9978 C.2       1 <0>        -0.1486
     14 C12         1.6486   -7.0032    6.9079 C.2       1 <0>         0.1197
     15 N3          2.0827   -7.6383    7.9688 N.2       1 <0>        -0.2959
     16 N4          1.8777   -9.0118    7.8020 N.pl3     1 <0>        -0.2999
     17 C13         1.2856   -9.2065    6.5815 C.2       1 <0>         0.2919
     18 N5          0.9690  -10.4338    6.1623 N.2       1 <0>        -0.4649
     19 C14         1.2101  -11.4922    6.9039 C.2       1 <0>         0.1925
     20 C15         1.8086  -11.3538    8.1585 C.2       1 <0>        -0.2084
     21 C16         2.1508  -10.0933    8.6045 C.2       1 <0>         0.2503
     22 C17         2.7831   -9.9088    9.9268 C.ar      1 <0>        -0.0597
     23 C18         2.1027   -9.2297   10.9404 C.ar      1 <0>        -0.0840
     24 C19         2.6955   -9.0592   12.1745 C.ar      1 <0>        -0.0951
     25 C20         3.9627   -9.5581   12.4130 C.ar      1 <0>        -0.1177
     26 C21         4.6483  -10.2349   11.4112 C.ar      1 <0>         0.1473
     27 C22         4.0594  -10.4171   10.1695 C.ar      1 <0>        -0.0819
     28 N6          5.9303  -10.7372   11.6577 N.am      1 <0>        -0.6682
     29 C23         6.8423  -10.7729   10.6660 C.2       1 <0>         0.5639
     30 O1          6.5838  -10.2815    9.5846 O.2       1 <0>        -0.5079
     31 C24         8.1567  -11.4096   10.8934 C.ar      1 <0>        -0.1409
     32 C25         8.4546  -11.9800   12.1323 C.ar      1 <0>        -0.0533
     33 C26         9.6829  -12.5729   12.3376 C.ar      1 <0>        -0.1218
     34 C27        10.6192  -12.6028   11.3191 C.ar      1 <0>        -0.0403
     35 C28        10.3305  -12.0394   10.0890 C.ar      1 <0>        -0.1882
     36 C29         9.1034  -11.4482    9.8685 C.ar      1 <0>        -0.0067
     37 C30        11.3564  -12.0762    8.9858 C.3       1 <0>         0.5100
     38 F1         12.5085  -12.7259    9.4418 F         1 <0>        -0.1731
     39 F2         10.8351  -12.7676    7.8870 F         1 <0>        -0.1729
     40 F3         11.6782  -10.7692    8.6044 F         1 <0>        -0.1728
     41 H1          0.6165    0.2803   -1.3317 H         1 <0>         0.1240
     42 H2         -0.9780    0.1856   -2.1172 H         1 <0>         0.1240
     43 H3         -0.8659    0.4150   -0.3556 H         1 <0>         0.1230
     44 H4         -2.2545   -1.5192   -0.0110 H         1 <0>         0.1375
     45 H5         -2.3720   -1.7266   -1.7749 H         1 <0>         0.1355
     46 H6         -2.8382   -3.8558   -0.5802 H         1 <0>         0.1240
     47 H7         -1.3725   -3.9830   -1.5829 H         1 <0>         0.0606
     48 H8          0.9093   -3.6327    1.2690 H         1 <0>         0.1263
     49 H9          0.8300   -3.8519   -0.4961 H         1 <0>         0.0612
     50 H10         1.3700   -1.5039    0.0715 H         1 <0>         0.1353
     51 H11        -0.1167   -1.3919    1.0439 H         1 <0>         0.1376
     52 H12        -2.0913   -5.6640    0.7011 H         1 <0>         0.0920
     53 H13        -0.4845   -5.8226   -0.0479 H         1 <0>         0.0499
     54 H14         0.5814   -5.2685    2.1213 H         1 <0>         0.0670
     55 H15        -1.0255   -5.1098    2.8703 H         1 <0>         0.0805
     56 H16        -1.5157   -7.4775    2.3204 H         1 <0>         0.0878
     57 H17         0.0912   -7.6362    1.5714 H         1 <0>         0.0843
     58 H18         1.6793   -5.9339    6.7592 H         1 <0>         0.2029
     59 H19         0.9438  -12.4740    6.5413 H         1 <0>         0.1889
     60 H20         2.0069  -12.2225    8.7687 H         1 <0>         0.1739
     61 H21         1.1130   -8.8379   10.7578 H         1 <0>         0.1269
     62 H22         2.1679   -8.5339   12.9569 H         1 <0>         0.1387
     63 H23         4.4215   -9.4212   13.3811 H         1 <0>         0.1355
     64 H24         4.5888  -10.9466    9.3911 H         1 <0>         0.1414
     65 H25         6.1629  -11.0599   12.5424 H         1 <0>         0.4144
     66 H26         7.7250  -11.9567   12.9283 H         1 <0>         0.1378
     67 H27         9.9146  -13.0146   13.2956 H         1 <0>         0.1480
     68 H28        11.5798  -13.0677   11.4853 H         1 <0>         0.1488
     69 H29         8.8776  -11.0127    8.9064 H         1 <0>         0.1488
     70 H30         0.0036   -1.9689   -1.8320 H         1 <0>         0.4223
@<TRIPOS>BOND
     1    1    2 1
     2    1   41 1
     3    1   42 1
     4    1   43 1
     5    2    7 1
     6    2    3 1
     7    2   70 1
     8    3    4 1
     9    3   44 1
    10    3   45 1
    11    4    5 1
    12    4   46 1
    13    4   47 1
    14    5    6 1
    15    5    8 1
    16    6    7 1
    17    6   48 1
    18    6   49 1
    19    7   50 1
    20    7   51 1
    21    8    9 1
    22    8   52 1
    23    8   53 1
    24    9   10 1
    25    9   54 1
    26    9   55 1
    27   10   11 1
    28   10   56 1
    29   10   57 1
    30   11   12 3
    31   12   13 1
    32   13   17 2
    33   13   14 1
    34   14   15 2
    35   14   58 1
    36   15   16 1
    37   16   21 1
    38   16   17 1
    39   17   18 1
    40   18   19 2
    41   19   20 1
    42   19   59 1
    43   20   21 2
    44   20   60 1
    45   21   22 1
    46   22   27 ar
    47   22   23 ar
    48   23   24 ar
    49   23   61 1
    50   24   25 ar
    51   24   62 1
    52   25   26 ar
    53   25   63 1
    54   26   27 ar
    55   26   28 1
    56   27   64 1
    57   28   29 am
    58   28   65 1
    59   29   30 2
    60   29   31 1
    61   31   36 ar
    62   31   32 ar
    63   32   33 ar
    64   32   66 1
    65   33   34 ar
    66   33   67 1
    67   34   35 ar
    68   34   68 1
    69   35   36 ar
    70   35   37 1
    71   36   69 1
    72   37   38 1
    73   37   39 1
    74   37   40 1
@<TRIPOS>MOLECULE
CHEMBL1080268__1
   70    74     0     0     0
SMALL
USER_CHARGES

@<TRIPOS>ATOM
      1 C1         -0.3930   -0.0215   -1.3093 C.3       1 <0>         0.0194
      2 N1         -0.3907   -1.4777   -1.1159 N.3       1 <0>        -0.5438
      3 C2         -1.7620   -2.0030   -1.0544 C.3       1 <0>         0.0239
      4 C3         -1.7157   -3.5260   -0.9126 C.3       1 <0>        -0.0019
      5 N2         -0.9814   -3.8821    0.3087 N.4       1 <0>        -0.3866
      6 C4          0.3933   -3.3720    0.2218 C.3       1 <0>        -0.0073
      7 C5          0.3645   -1.8477    0.0894 C.3       1 <0>         0.0246
      8 C6         -0.9528   -5.3436    0.4539 C.3       1 <0>        -0.0095
      9 C7         -0.2979   -5.7109    1.7870 C.3       1 <0>        -0.1455
     10 C8         -0.2682   -7.2331    1.9382 C.3       1 <0>         0.0168
     11 C9          0.3619   -7.5865    3.2208 C.1       1 <0>        -0.2205
     12 C10         0.8644   -7.8684    4.2437 C.1       1 <0>        -0.0389
     13 C11         1.4773   -8.2122    5.4914 C.2       1 <0>        -0.1627
     14 C12         1.9753   -7.3178    6.4481 C.2       1 <0>         0.1226
     15 N3          2.4602   -8.0020    7.4551 N.2       1 <0>        -0.2940
     16 N4          2.3023   -9.3690    7.2044 N.pl3     1 <0>        -0.2991
     17 C13         1.6865   -9.5082    5.9881 C.2       1 <0>         0.2979
     18 N5          1.4051  -10.7175    5.4976 N.2       1 <0>        -0.4682
     19 C14         1.7047  -11.8110    6.1632 C.2       1 <0>         0.1965
     20 C15         2.3298  -11.7299    7.4097 C.2       1 <0>        -0.2076
     21 C16         2.6363  -10.4881    7.9284 C.2       1 <0>         0.2533
     22 C17         3.2952  -10.3640    9.2447 C.ar      1 <0>        -0.0624
     23 C18         2.6165   -9.7781   10.3159 C.ar      1 <0>        -0.0840
     24 C19         3.2342   -9.6639   11.5442 C.ar      1 <0>        -0.0948
     25 C20         4.5249  -10.1274   11.7201 C.ar      1 <0>        -0.1166
     26 C21         5.2091  -10.7116   10.6607 C.ar      1 <0>         0.1483
     27 C22         4.5955  -10.8369    9.4239 C.ar      1 <0>        -0.0815
     28 N6          6.5149  -11.1784   10.8441 N.am      1 <0>        -0.6685
     29 C23         7.4016  -11.1151    9.8310 C.2       1 <0>         0.5646
     30 O1          7.0971  -10.5660    8.7901 O.2       1 <0>        -0.5085
     31 C24         8.7443  -11.7134    9.9857 C.ar      1 <0>        -0.1416
     32 C25         9.0952  -12.3498   11.1778 C.ar      1 <0>        -0.0532
     33 C26        10.3497  -12.9065   11.3154 C.ar      1 <0>        -0.1216
     34 C27        11.2598  -12.8347   10.2754 C.ar      1 <0>        -0.0398
     35 C28        10.9185  -12.2055    9.0915 C.ar      1 <0>        -0.1880
     36 C29         9.6650  -11.6496    8.9387 C.ar      1 <0>        -0.0066
     37 C30        11.9162  -12.1318    7.9645 C.3       1 <0>         0.5100
     38 F1         13.1031  -12.7640    8.3503 F         1 <0>        -0.1729
     39 F2         11.3928  -12.7713    6.8357 F         1 <0>        -0.1730
     40 F3         12.1790  -10.7916    7.6613 F         1 <0>        -0.1727
     41 H1          0.6323    0.3323   -1.4171 H         1 <0>         0.0842
     42 H2         -0.9586    0.2248   -2.2080 H         1 <0>         0.0838
     43 H3         -0.8544    0.4589   -0.4466 H         1 <0>         0.0394
     44 H4         -2.2779   -1.5733   -0.1957 H         1 <0>         0.0602
     45 H5         -2.2940   -1.7388   -1.9683 H         1 <0>         0.1236
     46 H6         -2.7317   -3.9163   -0.8525 H         1 <0>         0.1364
     47 H7         -1.2118   -3.9563   -1.7780 H         1 <0>         0.1382
     48 H8          0.9409   -3.6481    1.1229 H         1 <0>         0.1374
     49 H9          0.8864   -3.8031   -0.6495 H         1 <0>         0.1387
     50 H10         1.3840   -1.4703    0.0099 H         1 <0>         0.1234
     51 H11        -0.1163   -1.4155    0.9669 H         1 <0>         0.0602
     52 H12        -1.9714   -5.7310    0.4305 H         1 <0>         0.1346
     53 H13        -0.3796   -5.7789   -0.3647 H         1 <0>         0.1340
     54 H14         0.7206   -5.3235    1.8104 H         1 <0>         0.0909
     55 H15        -0.8712   -5.2756    2.6055 H         1 <0>         0.0903
     56 H16        -1.2867   -7.6206    1.9148 H         1 <0>         0.0934
     57 H17         0.3051   -7.6685    1.1197 H         1 <0>         0.0936
     58 H18         1.9623   -6.2408    6.3684 H         1 <0>         0.2030
     59 H19         1.4659  -12.7773    5.7440 H         1 <0>         0.1903
     60 H20         2.5761  -12.6275    7.9575 H         1 <0>         0.1754
     61 H21         1.6084   -9.4142   10.1823 H         1 <0>         0.1266
     62 H22         2.7078   -9.2106   12.3712 H         1 <0>         0.1392
     63 H23         5.0032  -10.0349   12.6840 H         1 <0>         0.1362
     64 H24         5.1239  -11.2945    8.6007 H         1 <0>         0.1417
     65 H25         6.7822  -11.5476   11.7003 H         1 <0>         0.4148
     66 H26         8.3862  -12.4059   11.9904 H         1 <0>         0.1377
     67 H27        10.6225  -13.3991   12.2370 H         1 <0>         0.1482
     68 H28        12.2410  -13.2716   10.3885 H         1 <0>         0.1490
     69 H29         9.3982  -11.1626    8.0123 H         1 <0>         0.1487
     70 H30        -1.4415   -3.4739    1.1086 H         1 <0>         0.4206
@<TRIPOS>BOND
     1    1    2 1
     2    1   41 1
     3    1   42 1
     4    1   43 1
     5    2    7 1
     6    2    3 1
     7    3    4 1
     8    3   44 1
     9    3   45 1
    10    4    5 1
    11    4   46 1
    12    4   47 1
    13    5    6 1
    14    5    8 1
    15    5   70 1
    16    6    7 1
    17    6   48 1
    18    6   49 1
    19    7   50 1
    20    7   51 1
    21    8    9 1
    22    8   52 1
    23    8   53 1
    24    9   10 1
    25    9   54 1
    26    9   55 1
    27   10   11 1
    28   10   56 1
    29   10   57 1
    30   11   12 3
    31   12   13 1
    32   13   17 2
    33   13   14 1
    34   14   15 2
    35   14   58 1
    36   15   16 1
    37   16   21 1
    38   16   17 1
    39   17   18 1
    40   18   19 2
    41   19   20 1
    42   19   59 1
    43   20   21 2
    44   20   60 1
    45   21   22 1
    46   22   27 ar
    47   22   23 ar
    48   23   24 ar
    49   23   61 1
    50   24   25 ar
    51   24   62 1
    52   25   26 ar
    53   25   63 1
    54   26   27 ar
    55   26   28 1
    56   27   64 1
    57   28   29 am
    58   28   65 1
    59   29   30 2
    60   29   31 1
    61   31   36 ar
    62   31   32 ar
    63   32   33 ar
    64   32   66 1
    65   33   34 ar
    66   33   67 1
    67   34   35 ar
    68   34   68 1
    69   35   36 ar
    70   35   37 1
    71   36   69 1
    72   37   38 1
    73   37   39 1
    74   37   40 1
@<TRIPOS>MOLECULE
CHEMBL165327
   64    67     0     0     0
SMALL
USER_CHARGES

@<TRIPOS>ATOM
      1 C1          0.8519   -0.1850    1.2448 C.ar      1 <0>        -0.1001
      2 C2          2.0128    0.5571    1.3357 C.ar      1 <0>        -0.1144
      3 C3          2.4167    1.3473    0.2693 C.ar      1 <0>         0.0632
      4 C4          1.6541    1.3928   -0.8889 C.ar      1 <0>        -0.0933
      5 C5          0.4930    0.6511   -0.9809 C.ar      1 <0>        -0.1252
      6 C6          0.0886   -0.1402    0.0859 C.ar      1 <0>         0.1662
      7 N1         -1.0893   -0.8933   -0.0071 N.am      1 <0>        -0.6788
      8 C7         -1.8569   -1.0813    1.0846 C.2       1 <0>         0.7074
      9 O1         -1.5841   -0.5136    2.1247 O.2       1 <0>        -0.5491
     10 N2         -2.9270   -1.8984    1.0235 N.am      1 <0>        -0.6788
     11 C8         -3.6710   -2.1650    2.1789 C.ar      1 <0>         0.1657
     12 C9         -3.8522   -1.1731    3.1339 C.ar      1 <0>        -0.0745
     13 C10        -4.5865   -1.4387    4.2728 C.ar      1 <0>        -0.0887
     14 C11        -5.1417   -2.6921    4.4631 C.ar      1 <0>        -0.0069
     15 C12        -4.9622   -3.6823    3.5135 C.ar      1 <0>        -0.1577
     16 C13        -4.2337   -3.4199    2.3695 C.ar      1 <0>        -0.0873
     17 C14        -5.5677   -5.0461    3.7242 C.3       1 <0>         0.5113
     18 F1         -5.2519   -5.8694    2.6380 F         1 <0>        -0.1746
     19 F2         -5.0556   -5.6072    4.8989 F         1 <0>        -0.1672
     20 F3         -6.9575   -4.9278    3.8311 F         1 <0>        -0.1675
     21 Cl1        -6.0642   -3.0228    5.8960 Cl        1 <0>        -0.0391
     22 O2          3.5599    2.0777    0.3593 O.3       1 <0>        -0.2424
     23 C15         4.7383    1.4093    0.4411 C.ar      1 <0>         0.1610
     24 C16         4.7828    0.0235    0.3128 C.ar      1 <0>        -0.2270
     25 C17         6.0010   -0.6254    0.4015 C.ar      1 <0>         0.1372
     26 N3          7.1136    0.0475    0.6052 N.ar      1 <0>        -0.4804
     27 C18         7.1183    1.3693    0.7335 C.ar      1 <0>         0.1127
     28 C19         5.9334    2.0931    0.6498 C.ar      1 <0>        -0.1358
     29 C20         8.3982    2.0803    0.9617 C.2       1 <0>         0.5754
     30 O3          8.4088    3.2896    1.0798 O.2       1 <0>        -0.5238
     31 N4          9.5506    1.3855    1.0382 N.am      1 <0>        -0.7097
     32 C21        10.8160    2.0884    1.2639 C.3       1 <0>         0.1201
     33 C22        11.9614    1.0749    1.3087 C.3       1 <0>         0.0443
     34 N5         13.2302    1.7797    1.5350 N.3       1 <0>        -0.5334
     35 C23        13.5713    2.6324    0.3870 C.3       1 <0>         0.0110
     36 C24        14.8659    3.3917    0.6889 C.3       1 <0>         0.0628
     37 O4         15.9023    2.4546    0.9941 O.3       1 <0>        -0.3851
     38 C25        15.6036    1.6083    2.1076 C.3       1 <0>         0.0627
     39 C26        14.3164    0.8308    1.8200 C.3       1 <0>         0.0184
     40 H1          0.5400   -0.8035    2.0734 H         1 <0>         0.1443
     41 H2          2.6064    0.5226    2.2373 H         1 <0>         0.1364
     42 H3          1.9686    2.0086   -1.7185 H         1 <0>         0.1414
     43 H4         -0.1007    0.6869   -1.8824 H         1 <0>         0.1391
     44 H5         -1.3522   -1.2795   -0.8572 H         1 <0>         0.4128
     45 H6         -3.1816   -2.3017    0.1789 H         1 <0>         0.4146
     46 H7         -3.4190   -0.1949    2.9860 H         1 <0>         0.1606
     47 H8         -4.7275   -0.6677    5.0159 H         1 <0>         0.1524
     48 H9         -4.0980   -4.1916    1.6263 H         1 <0>         0.1521
     49 H10         3.8758   -0.5386    0.1462 H         1 <0>         0.1471
     50 H11         6.0397   -1.7001    0.3026 H         1 <0>         0.1689
     51 H12         5.9396    3.1685    0.7493 H         1 <0>         0.1590
     52 H13         9.5421    0.4202    0.9439 H         1 <0>         0.4121
     53 H14        10.9884    2.7958    0.4527 H         1 <0>         0.0718
     54 H15        10.7692    2.6260    2.2109 H         1 <0>         0.0820
     55 H16        11.7890    0.3675    2.1199 H         1 <0>         0.0858
     56 H17        12.0082    0.5374    0.3617 H         1 <0>         0.0450
     57 H18        13.7112    2.0120   -0.4983 H         1 <0>         0.0461
     58 H19        12.7648    3.3439    0.2098 H         1 <0>         0.0911
     59 H20        15.1534    3.9816   -0.1814 H         1 <0>         0.1001
     60 H21        14.7099    4.0524    1.5417 H         1 <0>         0.0621
     61 H22        16.4245    0.9083    2.2633 H         1 <0>         0.1001
     62 H23        15.4690    2.2171    3.0017 H         1 <0>         0.0617
     63 H24        14.0538    0.2274    2.6889 H         1 <0>         0.0890
     64 H25        14.4682    0.1817    0.9577 H         1 <0>         0.0457
@<TRIPOS>BOND
     1    1    6 ar
     2    1    2 ar
     3    1   40 1
     4    2    3 ar
     5    2   41 1
     6    3    4 ar
     7    3   22 1
     8    4    5 ar
     9    4   42 1
    10    5    6 ar
    11    5   43 1
    12    6    7 1
    13    7    8 am
    14    7   44 1
    15    8    9 2
    16    8   10 am
    17   10   11 1
    18   10   45 1
    19   11   16 ar
    20   11   12 ar
    21   12   13 ar
    22   12   46 1
    23   13   14 ar
    24   13   47 1
    25   14   15 ar
    26   14   21 1
    27   15   16 ar
    28   15   17 1
    29   16   48 1
    30   17   18 1
    31   17   19 1
    32   17   20 1
    33   22   23 1
    34   23   28 ar
    35   23   24 ar
    36   24   25 ar
    37   24   49 1
    38   25   26 ar
    39   25   50 1
    40   26   27 ar
    41   27   28 ar
    42   27   29 1
    43   28   51 1
    44   29   30 2
    45   29   31 am
    46   31   32 1
    47   31   52 1
    48   32   33 1
    49   32   53 1
    50   32   54 1
    51   33   34 1
    52   33   55 1
    53   33   56 1
    54   34   39 1
    55   34   35 1
    56   35   36 1
    57   35   57 1
    58   35   58 1
    59   36   37 1
    60   36   59 1
    61   36   60 1
    62   37   38 1
    63   38   39 1
    64   38   61 1
    65   38   62 1
    66   39   63 1
    67   39   64 1
@<TRIPOS>MOLECULE
CHEMBL165327__1
   65    68     0     0     0
SMALL
USER_CHARGES

@<TRIPOS>ATOM
      1 C1          0.8519   -0.1850    1.2448 C.ar      1 <0>        -0.1007
      2 C2          2.0128    0.5571    1.3357 C.ar      1 <0>        -0.1137
      3 C3          2.4167    1.3473    0.2693 C.ar      1 <0>         0.0546
      4 C4          1.6541    1.3928   -0.8889 C.ar      1 <0>        -0.0904
      5 C5          0.4930    0.6511   -0.9809 C.ar      1 <0>        -0.1253
      6 C6          0.0886   -0.1402    0.0859 C.ar      1 <0>         0.1730
      7 N1         -1.0893   -0.8933   -0.0071 N.am      1 <0>        -0.6801
      8 C7         -1.8569   -1.0813    1.0846 C.2       1 <0>         0.7080
      9 O1         -1.5841   -0.5136    2.1247 O.2       1 <0>        -0.5496
     10 N2         -2.9270   -1.8984    1.0235 N.am      1 <0>        -0.6775
     11 C8         -3.6710   -2.1650    2.1789 C.ar      1 <0>         0.1631
     12 C9         -3.8522   -1.1731    3.1339 C.ar      1 <0>        -0.0745
     13 C10        -4.5865   -1.4387    4.2728 C.ar      1 <0>        -0.0889
     14 C11        -5.1417   -2.6921    4.4631 C.ar      1 <0>        -0.0059
     15 C12        -4.9622   -3.6823    3.5135 C.ar      1 <0>        -0.1572
     16 C13        -4.2337   -3.4199    2.3695 C.ar      1 <0>        -0.0862
     17 C14        -5.5677   -5.0461    3.7242 C.3       1 <0>         0.5110
     18 F1         -5.2519   -5.8694    2.6380 F         1 <0>        -0.1745
     19 F2         -5.0556   -5.6072    4.8989 F         1 <0>        -0.1671
     20 F3         -6.9575   -4.9278    3.8311 F         1 <0>        -0.1666
     21 Cl1        -6.0642   -3.0228    5.8960 Cl        1 <0>        -0.0368
     22 O2          3.5599    2.0777    0.3593 O.3       1 <0>        -0.2392
     23 C15         4.7383    1.4093    0.4411 C.ar      1 <0>         0.1659
     24 C16         4.7828    0.0235    0.3128 C.ar      1 <0>        -0.2183
     25 C17         6.0010   -0.6254    0.4015 C.ar      1 <0>         0.1394
     26 N3          7.1136    0.0475    0.6052 N.ar      1 <0>        -0.4846
     27 C18         7.1183    1.3693    0.7335 C.ar      1 <0>         0.0993
     28 C19         5.9334    2.0931    0.6498 C.ar      1 <0>        -0.1322
     29 C20         8.3982    2.0803    0.9617 C.2       1 <0>         0.5887
     30 O3          8.4088    3.2896    1.0798 O.2       1 <0>        -0.5120
     31 N4          9.5506    1.3855    1.0382 N.am      1 <0>        -0.7166
     32 C21        10.8160    2.0884    1.2639 C.3       1 <0>         0.0951
     33 C22        11.9614    1.0749    1.3087 C.3       1 <0>        -0.0214
     34 N5         13.2302    1.7797    1.5350 N.4       1 <0>        -0.3816
     35 C23        13.5225    2.6444    0.3835 C.3       1 <0>        -0.0518
     36 C24        14.8449    3.3777    0.6217 C.3       1 <0>         0.0366
     37 O4         15.8841    2.4185    0.8356 O.3       1 <0>        -0.3560
     38 C25        15.6338    1.5364    1.9333 C.3       1 <0>         0.0357
     39 C26        14.3129    0.7996    1.6975 C.3       1 <0>        -0.0426
     40 H1          0.5400   -0.8035    2.0734 H         1 <0>         0.1458
     41 H2          2.6064    0.5226    2.2373 H         1 <0>         0.1355
     42 H3          1.9686    2.0086   -1.7185 H         1 <0>         0.1418
     43 H4         -0.1007    0.6869   -1.8824 H         1 <0>         0.1411
     44 H5         -1.3522   -1.2795   -0.8572 H         1 <0>         0.4140
     45 H6         -3.1816   -2.3017    0.1789 H         1 <0>         0.4152
     46 H7         -3.4190   -0.1949    2.9860 H         1 <0>         0.1600
     47 H8         -4.7275   -0.6677    5.0159 H         1 <0>         0.1527
     48 H9         -4.0980   -4.1916    1.6263 H         1 <0>         0.1524
     49 H10         3.8758   -0.5386    0.1462 H         1 <0>         0.1514
     50 H11         6.0397   -1.7001    0.3026 H         1 <0>         0.1721
     51 H12         5.9396    3.1685    0.7493 H         1 <0>         0.1595
     52 H13         9.5421    0.4202    0.9439 H         1 <0>         0.4201
     53 H14        10.9884    2.7958    0.4527 H         1 <0>         0.0917
     54 H15        10.7692    2.6260    2.2109 H         1 <0>         0.0925
     55 H16        11.7890    0.3675    2.1199 H         1 <0>         0.1424
     56 H17        12.0082    0.5374    0.3617 H         1 <0>         0.1404
     57 H18        13.6014    2.0359   -0.5174 H         1 <0>         0.1421
     58 H19        12.7200    3.3719    0.2621 H         1 <0>         0.1454
     59 H20        15.0854    3.9868   -0.2496 H         1 <0>         0.1436
     60 H21        14.7534    4.0172    1.4997 H         1 <0>         0.0830
     61 H22        16.4452    0.8128    2.0112 H         1 <0>         0.1435
     62 H23        15.5693    2.1128    2.8562 H         1 <0>         0.0825
     63 H24        14.0971    0.1577    2.5516 H         1 <0>         0.1448
     64 H25        14.3915    0.1918    0.7961 H         1 <0>         0.1410
     65 H26        13.1582    2.3429    2.3691 H         1 <0>         0.4261
@<TRIPOS>BOND
     1    1    6 ar
     2    1    2 ar
     3    1   40 1
     4    2    3 ar
     5    2   41 1
     6    3    4 ar
     7    3   22 1
     8    4    5 ar
     9    4   42 1
    10    5    6 ar
    11    5   43 1
    12    6    7 1
    13    7    8 am
    14    7   44 1
    15    8    9 2
    16    8   10 am
    17   10   11 1
    18   10   45 1
    19   11   16 ar
    20   11   12 ar
    21   12   13 ar
    22   12   46 1
    23   13   14 ar
    24   13   47 1
    25   14   15 ar
    26   14   21 1
    27   15   16 ar
    28   15   17 1
    29   16   48 1
    30   17   18 1
    31   17   19 1
    32   17   20 1
    33   22   23 1
    34   23   28 ar
    35   23   24 ar
    36   24   25 ar
    37   24   49 1
    38   25   26 ar
    39   25   50 1
    40   26   27 ar
    41   27   28 ar
    42   27   29 1
    43   28   51 1
    44   29   30 2
    45   29   31 am
    46   31   32 1
    47   31   52 1
    48   32   33 1
    49   32   53 1
    50   32   54 1
    51   33   34 1
    52   33   55 1
    53   33   56 1
    54   34   39 1
    55   34   35 1
    56   34   65 1
    57   35   36 1
    58   35   57 1
    59   35   58 1
    60   36   37 1
    61   36   59 1
    62   36   60 1
    63   37   38 1
    64   38   39 1
    65   38   61 1
    66   38   62 1
    67   39   63 1
    68   39   64 1
@<TRIPOS>MOLECULE
CHEMBL256775
   63    67     0     0     0
SMALL
USER_CHARGES

@<TRIPOS>ATOM
      1 C1         -0.7887    0.8632   -0.1340 C.ar      1 <0>        -0.1076
      2 C2          0.5153    1.2934    0.0087 C.ar      1 <0>        -0.0757
      3 C3          1.5688    0.4701   -0.3883 C.ar      1 <0>         0.0059
      4 C4          1.3005   -0.7864   -0.9282 C.ar      1 <0>        -0.0822
      5 C5         -0.0119   -1.2102   -1.0674 C.ar      1 <0>         0.1398
      6 C6         -1.0552   -0.3826   -0.6694 C.ar      1 <0>        -0.1306
      7 N1         -0.2864   -2.4709   -1.6094 N.am      1 <0>        -0.6761
      8 C7          0.5557   -3.4989   -1.3847 C.2       1 <0>         0.5095
      9 O1          1.5048   -3.3545   -0.6435 O.2       1 <0>        -0.4979
     10 C8          0.3180   -4.8278   -2.0545 C.3       1 <0>        -0.1007
     11 C9          1.3932   -5.7989   -1.6396 C.ar      1 <0>        -0.0672
     12 C10         2.5605   -5.8925   -2.3743 C.ar      1 <0>        -0.0904
     13 C11         3.5470   -6.7828   -1.9943 C.ar      1 <0>        -0.1081
     14 C12         3.3661   -7.5805   -0.8785 C.ar      1 <0>        -0.0312
     15 C13         2.1976   -7.4864   -0.1436 C.ar      1 <0>        -0.1086
     16 C14         1.2142   -6.5916   -0.5213 C.ar      1 <0>        -0.0905
     17 Cl1         4.6044   -8.6995   -0.4009 Cl        1 <0>        -0.0701
     18 C15         2.9691    0.9302   -0.2369 C.2       1 <0>         0.1226
     19 C16         3.4253    2.2294   -0.3789 C.2       1 <0>         0.0459
     20 N2          4.7828    2.1853   -0.1505 N.pl3     1 <0>        -0.5205
     21 H1          5.3944    2.9378   -0.1759 H         1 <0>         0.4334
     22 C17         5.1047    0.9027    0.1154 C.2       1 <0>         0.1397
     23 N3          4.0307    0.1637    0.0696 N.2       1 <0>        -0.4111
     24 C18         6.4918    0.4011    0.4243 C.3       1 <0>         0.5640
     25 F1          6.5197   -0.9930    0.3105 F         1 <0>        -0.1421
     26 F2          7.4020    0.9610   -0.4787 F         1 <0>        -0.1666
     27 F3          6.8415    0.7697    1.7278 F         1 <0>        -0.1615
     28 C19         2.6206    3.4198   -0.7081 C.ar      1 <0>         0.2879
     29 C20         3.0538    4.6987   -0.3320 C.ar      1 <0>        -0.2718
     30 C21         2.2653    5.7838   -0.6630 C.ar      1 <0>         0.2024
     31 N4          1.1323    5.5860   -1.3204 N.ar      1 <0>        -0.5518
     32 C22         0.7454    4.3660   -1.6644 C.ar      1 <0>         0.5704
     33 N5          1.4708    3.2980   -1.3736 N.ar      1 <0>        -0.5301
     34 N6         -0.4471    4.2050   -2.3509 N.pl3     1 <0>        -0.6325
     35 C23        -1.1668    5.3266   -2.7749 C.ar      1 <0>         0.1595
     36 C24        -0.4928    6.4763   -3.1705 C.ar      1 <0>        -0.0868
     37 C25        -1.1995    7.5873   -3.5903 C.ar      1 <0>        -0.1052
     38 C26        -2.5793    7.5629   -3.6196 C.ar      1 <0>        -0.1023
     39 C27        -3.2655    6.4135   -3.2245 C.ar      1 <0>        -0.1179
     40 C28        -2.5522    5.2901   -2.8061 C.ar      1 <0>        -0.0865
     41 C29        -4.7436    6.3849   -3.2545 C.2       1 <0>         0.5644
     42 O2         -5.3392    5.3829   -2.9099 O.2       1 <0>        -0.5382
     43 N7         -5.4304    7.4698   -3.6639 N.am      1 <0>        -0.8497
     44 H2         -1.6029    1.5005    0.1777 H         1 <0>         0.1271
     45 H3          0.7197    2.2677    0.4275 H         1 <0>         0.1138
     46 H4          2.1126   -1.4277   -1.2375 H         1 <0>         0.1402
     47 H5         -2.0772   -0.7143   -0.7785 H         1 <0>         0.1270
     48 H6         -1.0827   -2.6048   -2.1469 H         1 <0>         0.4117
     49 H7         -0.6562   -5.2156   -1.7569 H         1 <0>         0.1090
     50 H8          0.3427   -4.6989   -3.1366 H         1 <0>         0.1098
     51 H9          2.7015   -5.2700   -3.2455 H         1 <0>         0.1300
     52 H10         4.4588   -6.8561   -2.5685 H         1 <0>         0.1342
     53 H11         2.0557   -8.1091    0.7273 H         1 <0>         0.1342
     54 H12         0.3041   -6.5146    0.0549 H         1 <0>         0.1302
     55 H13         3.9818    4.8327    0.2040 H         1 <0>         0.1449
     56 H14         2.5692    6.7830   -0.3882 H         1 <0>         0.1780
     57 H15        -0.7828    3.3143   -2.5376 H         1 <0>         0.4278
     58 H16         0.5867    6.5014   -3.1494 H         1 <0>         0.1386
     59 H17        -0.6704    8.4777   -3.8962 H         1 <0>         0.1336
     60 H18        -3.1279    8.4333   -3.9480 H         1 <0>         0.1278
     61 H19        -3.0777    4.3964   -2.5035 H         1 <0>         0.1401
     62 H20        -4.9551    8.2695   -3.9389 H         1 <0>         0.4018
     63 H21        -6.4000    7.4511   -3.6836 H         1 <0>         0.4069
@<TRIPOS>BOND
     1    1    6 ar
     2    1    2 ar
     3    1   44 1
     4    2    3 ar
     5    2   45 1
     6    3    4 ar
     7    3   18 1
     8    4    5 ar
     9    4   46 1
    10    5    6 ar
    11    5    7 1
    12    6   47 1
    13    7    8 am
    14    7   48 1
    15    8    9 2
    16    8   10 1
    17   10   11 1
    18   10   49 1
    19   10   50 1
    20   11   16 ar
    21   11   12 ar
    22   12   13 ar
    23   12   51 1
    24   13   14 ar
    25   13   52 1
    26   14   15 ar
    27   14   17 1
    28   15   16 ar
    29   15   53 1
    30   16   54 1
    31   18   23 1
    32   18   19 2
    33   19   20 1
    34   19   28 1
    35   20   21 1
    36   20   22 1
    37   22   23 2
    38   22   24 1
    39   24   25 1
    40   24   26 1
    41   24   27 1
    42   28   33 ar
    43   28   29 ar
    44   29   30 ar
    45   29   55 1
    46   30   31 ar
    47   30   56 1
    48   31   32 ar
    49   32   33 ar
    50   32   34 1
    51   34   35 1
    52   34   57 1
    53   35   40 ar
    54   35   36 ar
    55   36   37 ar
    56   36   58 1
    57   37   38 ar
    58   37   59 1
    59   38   39 ar
    60   38   60 1
    61   39   40 ar
    62   39   41 1
    63   40   61 1
    64   41   42 2
    65   41   43 am
    66   43   62 1
    67   43   63 1
@<TRIPOS>MOLECULE
CHEMBL256775__1
   63    67     0     0     0
SMALL
USER_CHARGES

@<TRIPOS>ATOM
      1 C1         -0.6209    1.4561   -0.3305 C.ar      1 <0>        -0.1150
      2 C2          0.7510    1.6064   -0.3353 C.ar      1 <0>        -0.0587
      3 C3          1.5765    0.4827   -0.2575 C.ar      1 <0>        -0.0361
      4 C4          1.0090   -0.7896   -0.1751 C.ar      1 <0>        -0.0970
      5 C5         -0.3697   -0.9292   -0.1710 C.ar      1 <0>         0.1356
      6 C6         -1.1826    0.1958   -0.2488 C.ar      1 <0>        -0.1190
      7 N1         -0.9437   -2.2028   -0.0890 N.am      1 <0>        -0.6753
      8 C7         -0.3356   -3.1715    0.6240 C.2       1 <0>         0.5123
      9 O1          0.6628   -2.9172    1.2641 O.2       1 <0>        -0.5063
     10 C8         -0.8961   -4.5703    0.6260 C.3       1 <0>        -0.1008
     11 C9         -0.0375   -5.4542    1.4936 C.ar      1 <0>        -0.0689
     12 C10         1.0372   -6.1279    0.9439 C.ar      1 <0>        -0.0919
     13 C11         1.8249   -6.9388    1.7391 C.ar      1 <0>        -0.1086
     14 C12         1.5377   -7.0761    3.0855 C.ar      1 <0>        -0.0310
     15 C13         0.4620   -6.4016    3.6351 C.ar      1 <0>        -0.1081
     16 C14        -0.3216   -5.5866    2.8400 C.ar      1 <0>        -0.0905
     17 Cl1         2.5264   -8.0947    4.0848 Cl        1 <0>        -0.0678
     18 C15         3.0451    0.6401   -0.2629 C.2       1 <0>         0.1327
     19 C16         3.7849    1.5574    0.4631 C.2       1 <0>         0.0452
     20 N2          5.0830    1.3572    0.1631 N.2       1 <0>        -0.3958
     21 H1          3.7445   -0.8263   -1.5913 H         1 <0>         0.4339
     22 C17         5.1864    0.3821   -0.6949 C.2       1 <0>         0.1201
     23 N3          3.9504   -0.0980   -0.9846 N.pl3     1 <0>        -0.5303
     24 C18         6.4786   -0.1366   -1.2712 C.3       1 <0>         0.5665
     25 F1          7.5523    0.3367   -0.5094 F         1 <0>        -0.1452
     26 F2          6.4713   -1.5354   -1.2482 F         1 <0>        -0.1666
     27 F3          6.6119    0.3074   -2.5912 F         1 <0>        -0.1625
     28 C19         3.2488    2.5716    1.3965 C.ar      1 <0>         0.3030
     29 C20         4.0454    3.0783    2.4301 C.ar      1 <0>        -0.2434
     30 C21         3.5007    4.0246    3.2773 C.ar      1 <0>         0.1938
     31 N4          2.2512    4.4214    3.0885 N.ar      1 <0>        -0.5554
     32 C22         1.5189    3.9253    2.1018 C.ar      1 <0>         0.5644
     33 N5          2.0016    3.0216    1.2636 N.ar      1 <0>        -0.5501
     34 N6          0.2160    4.3677    1.9401 N.pl3     1 <0>        -0.6378
     35 C23        -0.2728    5.4085    2.7360 C.ar      1 <0>         0.1620
     36 C24         0.5758    6.4336    3.1381 C.ar      1 <0>        -0.0858
     37 C25         0.0975    7.4644    3.9247 C.ar      1 <0>        -0.1050
     38 C26        -1.2258    7.4828    4.3167 C.ar      1 <0>        -0.1037
     39 C27        -2.0860    6.4580    3.9188 C.ar      1 <0>        -0.1189
     40 C28        -1.6050    5.4210    3.1194 C.ar      1 <0>        -0.0892
     41 C29        -3.5039    6.4751    4.3378 C.2       1 <0>         0.5649
     42 O2         -4.2511    5.5817    3.9901 O.2       1 <0>        -0.5397
     43 N7         -3.9677    7.4813    5.1053 N.am      1 <0>        -0.8499
     44 H2         -1.2578    2.3265   -0.3862 H         1 <0>         0.1314
     45 H3          1.1860    2.5928   -0.3995 H         1 <0>         0.1602
     46 H4          1.6421   -1.6625   -0.1151 H         1 <0>         0.1325
     47 H5         -2.2568    0.0846   -0.2455 H         1 <0>         0.1295
     48 H6         -1.7793   -2.3886   -0.5454 H         1 <0>         0.4135
     49 H7         -1.9130   -4.5538    1.0181 H         1 <0>         0.1105
     50 H8         -0.9055   -4.9594   -0.3921 H         1 <0>         0.1110
     51 H9          1.2611   -6.0209   -0.1072 H         1 <0>         0.1297
     52 H10         2.6643   -7.4653    1.3094 H         1 <0>         0.1348
     53 H11         0.2371   -6.5086    4.6859 H         1 <0>         0.1350
     54 H12        -1.1585   -5.0563    3.2699 H         1 <0>         0.1305
     55 H13         5.0617    2.7375    2.5626 H         1 <0>         0.1544
     56 H14         4.0877    4.4360    4.0852 H         1 <0>         0.1763
     57 H15        -0.3571    3.9555    1.2749 H         1 <0>         0.4229
     58 H16         1.6123    6.4242    2.8350 H         1 <0>         0.1403
     59 H17         0.7614    8.2580    4.2340 H         1 <0>         0.1335
     60 H18        -1.5956    8.2899    4.9317 H         1 <0>         0.1270
     61 H19        -2.2669    4.6280    2.8044 H         1 <0>         0.1383
     62 H20        -3.3713    8.1942    5.3828 H         1 <0>         0.4019
     63 H21        -4.8978    7.4925    5.3802 H         1 <0>         0.4064
@<TRIPOS>BOND
     1    1    6 ar
     2    1    2 ar
     3    1   44 1
     4    2    3 ar
     5    2   45 1
     6    3    4 ar
     7    3   18 1
     8    4    5 ar
     9    4   46 1
    10    5    6 ar
    11    5    7 1
    12    6   47 1
    13    7    8 am
    14    7   48 1
    15    8    9 2
    16    8   10 1
    17   10   11 1
    18   10   49 1
    19   10   50 1
    20   11   16 ar
    21   11   12 ar
    22   12   13 ar
    23   12   51 1
    24   13   14 ar
    25   13   52 1
    26   14   15 ar
    27   14   17 1
    28   15   16 ar
    29   15   53 1
    30   16   54 1
    31   18   19 2
    32   18   23 1
    33   19   20 1
    34   19   28 1
    35   20   22 2
    36   21   23 1
    37   22   24 1
    38   22   23 1
    39   24   25 1
    40   24   26 1
    41   24   27 1
    42   28   33 ar
    43   28   29 ar
    44   29   30 ar
    45   29   55 1
    46   30   31 ar
    47   30   56 1
    48   31   32 ar
    49   32   33 ar
    50   32   34 1
    51   34   35 1
    52   34   57 1
    53   35   40 ar
    54   35   36 ar
    55   36   37 ar
    56   36   58 1
    57   37   38 ar
    58   37   59 1
    59   38   39 ar
    60   38   60 1
    61   39   40 ar
    62   39   41 1
    63   40   61 1
    64   41   42 2
    65   41   43 am
    66   43   62 1
    67   43   63 1
@<TRIPOS>MOLECULE
CHEMBL258454
   52    55     0     0     0
SMALL
USER_CHARGES

@<TRIPOS>ATOM
      1 C1          0.2143    1.6514   -0.5791 C.3       1 <0>         0.1049
      2 N1          0.2074    0.1962   -0.4101 N.pl3     1 <0>        -0.6973
      3 C2         -0.9898   -0.4734   -0.2255 C.ar      1 <0>         0.5730
      4 N2         -2.1205    0.2183   -0.2099 N.ar      1 <0>        -0.5631
      5 C3         -3.2875   -0.3838   -0.0365 C.ar      1 <0>         0.2058
      6 C4         -3.3234   -1.7551    0.1306 C.ar      1 <0>        -0.2840
      7 C5         -2.1133   -2.4613    0.1099 C.ar      1 <0>         0.2863
      8 N3         -0.9762   -1.7878   -0.0746 N.ar      1 <0>        -0.5404
      9 C6         -2.0972   -3.9251    0.2836 C.2       1 <0>         0.0508
     10 C7         -1.1266   -4.8052   -0.1632 C.2       1 <0>         0.1178
     11 N4         -1.5046   -6.0411    0.2081 N.2       1 <0>        -0.4112
     12 C8         -2.6382   -5.9772    0.8502 C.2       1 <0>         0.1365
     13 N5         -3.0420   -4.6925    0.9282 N.pl3     1 <0>        -0.5207
     14 H1         -3.8497   -4.3691    1.3570 H         1 <0>         0.4333
     15 C9         -3.3802   -7.1574    1.4227 C.3       1 <0>         0.5642
     16 F1         -2.5283   -8.2662    1.4687 F         1 <0>        -0.1426
     17 F2         -3.8170   -6.8509    2.7160 F         1 <0>        -0.1670
     18 F3         -4.4842   -7.4507    0.6149 F         1 <0>        -0.1618
     19 C10         0.1018   -4.4508   -0.9119 C.ar      1 <0>         0.0080
     20 C11         0.0832   -3.4003   -1.8298 C.ar      1 <0>        -0.0724
     21 C12         1.2285   -3.0718   -2.5262 C.ar      1 <0>        -0.1073
     22 C13         2.3967   -3.7809   -2.3178 C.ar      1 <0>        -0.1326
     23 C14         2.4248   -4.8290   -1.4061 C.ar      1 <0>         0.1389
     24 C15         1.2805   -5.1620   -0.6974 C.ar      1 <0>        -0.0830
     25 N6          3.6094   -5.5447   -1.1989 N.am      1 <0>        -0.6762
     26 C16         3.5600   -6.8595   -0.9068 C.2       1 <0>         0.5091
     27 O1          2.4971   -7.4436   -0.9174 O.2       1 <0>        -0.4974
     28 C17         4.8255   -7.6040   -0.5671 C.3       1 <0>        -0.1005
     29 C18         4.4984   -9.0474   -0.2832 C.ar      1 <0>        -0.0674
     30 C19         4.1868   -9.4451    1.0036 C.ar      1 <0>        -0.0904
     31 C20         3.8867  -10.7687    1.2646 C.ar      1 <0>        -0.1081
     32 C21         3.8982  -11.6958    0.2377 C.ar      1 <0>        -0.0312
     33 C22         4.2101  -11.2972   -1.0499 C.ar      1 <0>        -0.1087
     34 C23         4.5045   -9.9722   -1.3107 C.ar      1 <0>        -0.0906
     35 Cl1         3.5219  -13.3587    0.5648 Cl        1 <0>        -0.0700
     36 H2          1.2396    1.9971   -0.7108 H         1 <0>         0.0779
     37 H3         -0.3746    1.9181   -1.4567 H         1 <0>         0.0614
     38 H4         -0.2170    2.1219    0.3045 H         1 <0>         0.0603
     39 H5          1.0419   -0.2980   -0.4276 H         1 <0>         0.4173
     40 H6         -4.2016    0.1912   -0.0254 H         1 <0>         0.1739
     41 H7         -4.2617   -2.2701    0.2741 H         1 <0>         0.1413
     42 H8         -0.8277   -2.8442   -1.9955 H         1 <0>         0.1147
     43 H9          1.2119   -2.2584   -3.2366 H         1 <0>         0.1257
     44 H10         3.2901   -3.5196   -2.8656 H         1 <0>         0.1257
     45 H11         1.3016   -5.9733    0.0152 H         1 <0>         0.1393
     46 H12         4.4660   -5.0945   -1.2656 H         1 <0>         0.4111
     47 H13         5.5175   -7.5467   -1.4073 H         1 <0>         0.1088
     48 H14         5.2854   -7.1557    0.3136 H         1 <0>         0.1096
     49 H15         4.1782   -8.7213    1.8052 H         1 <0>         0.1300
     50 H16         3.6436  -11.0794    2.2700 H         1 <0>         0.1342
     51 H17         4.2195  -12.0205   -1.8519 H         1 <0>         0.1341
     52 H18         4.7434   -9.6600   -2.3166 H         1 <0>         0.1302
@<TRIPOS>BOND
     1    1    2 1
     2    1   36 1
     3    1   37 1
     4    1   38 1
     5    2    3 1
     6    2   39 1
     7    3    8 ar
     8    3    4 ar
     9    4    5 ar
    10    5    6 ar
    11    5   40 1
    12    6    7 ar
    13    6   41 1
    14    7    8 ar
    15    7    9 1
    16    9   13 1
    17    9   10 2
    18   10   11 1
    19   10   19 1
    20   11   12 2
    21   12   13 1
    22   12   15 1
    23   13   14 1
    24   15   16 1
    25   15   17 1
    26   15   18 1
    27   19   24 ar
    28   19   20 ar
    29   20   21 ar
    30   20   42 1
    31   21   22 ar
    32   21   43 1
    33   22   23 ar
    34   22   44 1
    35   23   24 ar
    36   23   25 1
    37   24   45 1
    38   25   26 am
    39   25   46 1
    40   26   27 2
    41   26   28 1
    42   28   29 1
    43   28   47 1
    44   28   48 1
    45   29   34 ar
    46   29   30 ar
    47   30   31 ar
    48   30   49 1
    49   31   32 ar
    50   31   50 1
    51   32   33 ar
    52   32   35 1
    53   33   34 ar
    54   33   51 1
    55   34   52 1
@<TRIPOS>MOLECULE
CHEMBL258454__1
   52    55     0     0     0
SMALL
USER_CHARGES

@<TRIPOS>ATOM
      1 C1          0.2928    1.6745   -0.6183 C.3       1 <0>         0.1075
      2 N1          0.2597    0.2204   -0.4430 N.pl3     1 <0>        -0.7031
      3 C2         -0.9509   -0.4288   -0.2731 C.ar      1 <0>         0.5673
      4 N2         -2.0703    0.2810   -0.2771 N.ar      1 <0>        -0.5668
      5 C3         -3.2487   -0.3020   -0.1181 C.ar      1 <0>         0.1943
      6 C4         -3.3079   -1.6722    0.0544 C.ar      1 <0>        -0.2571
      7 C5         -2.1104   -2.3964    0.0544 C.ar      1 <0>         0.2977
      8 N3         -0.9612   -1.7428   -0.1162 N.ar      1 <0>        -0.5538
      9 C6         -2.1201   -3.8641    0.2351 C.2       1 <0>         0.0525
     10 C7         -1.1489   -4.7494   -0.1996 C.2       1 <0>         0.1214
     11 N4         -1.5691   -5.9990    0.1841 N.pl3     1 <0>        -0.5275
     12 C8         -2.7550   -5.8475    0.8264 C.2       1 <0>         0.1188
     13 N5         -3.0730   -4.5844    0.8583 N.2       1 <0>        -0.3980
     14 H1         -1.1042   -6.8354    0.0255 H         1 <0>         0.4363
     15 C9         -3.5742   -6.9663    1.4166 C.3       1 <0>         0.5662
     16 F1         -4.8667   -6.5048    1.6882 F         1 <0>        -0.1456
     17 F2         -3.6393   -8.0268    0.5065 F         1 <0>        -0.1662
     18 F3         -2.9771   -7.4058    2.6030 F         1 <0>        -0.1627
     19 C10         0.0908   -4.4165   -0.9303 C.ar      1 <0>        -0.0068
     20 C11         0.0551   -3.5157   -1.9974 C.ar      1 <0>        -0.0654
     21 C12         1.2146   -3.2068   -2.6782 C.ar      1 <0>        -0.0984
     22 C13         2.4143   -3.7863   -2.3084 C.ar      1 <0>        -0.1271
     23 C14         2.4605   -4.6840   -1.2486 C.ar      1 <0>         0.1455
     24 C15         1.3026   -4.9963   -0.5536 C.ar      1 <0>        -0.0997
     25 N6          3.6773   -5.2682   -0.8792 N.am      1 <0>        -0.6747
     26 C16         3.7015   -6.5258   -0.3950 C.2       1 <0>         0.5154
     27 O1          2.6839   -7.1852   -0.3686 O.2       1 <0>        -0.5104
     28 C17         4.9930   -7.1127    0.1135 C.3       1 <0>        -0.1013
     29 C18         4.7500   -8.5197    0.5956 C.ar      1 <0>        -0.0689
     30 C19         4.3911   -8.7471    1.9111 C.ar      1 <0>        -0.0917
     31 C20         4.1680  -10.0372    2.3538 C.ar      1 <0>        -0.1085
     32 C21         4.3040  -11.1013    1.4800 C.ar      1 <0>        -0.0311
     33 C22         4.6632  -10.8732    0.1636 C.ar      1 <0>        -0.1084
     34 C23         4.8805   -9.5821   -0.2794 C.ar      1 <0>        -0.0907
     35 Cl1         4.0246  -12.7221    2.0355 Cl        1 <0>        -0.0676
     36 H2          1.3254    2.0027   -0.7365 H         1 <0>         0.0746
     37 H3         -0.2788    1.9466   -1.5056 H         1 <0>         0.0594
     38 H4         -0.1436    2.1559    0.2568 H         1 <0>         0.0587
     39 H5          1.0861   -0.2875   -0.4461 H         1 <0>         0.4137
     40 H6         -4.1539    0.2870   -0.1228 H         1 <0>         0.1714
     41 H7         -4.2561   -2.1722    0.1865 H         1 <0>         0.1502
     42 H8         -0.8802   -3.0615   -2.2897 H         1 <0>         0.1199
     43 H9          1.1851   -2.5101   -3.5029 H         1 <0>         0.1315
     44 H10         3.3186   -3.5407   -2.8454 H         1 <0>         0.1296
     45 H11         1.3374   -5.6900    0.2734 H         1 <0>         0.1330
     46 H12         4.5033   -4.7682   -0.9716 H         1 <0>         0.4138
     47 H13         5.7278   -7.1263   -0.6915 H         1 <0>         0.1107
     48 H14         5.3682   -6.5060    0.9377 H         1 <0>         0.1115
     49 H15         4.2854   -7.9164    2.5931 H         1 <0>         0.1301
     50 H16         3.8880  -10.2147    3.3816 H         1 <0>         0.1349
     51 H17         4.7698  -11.7034   -0.5188 H         1 <0>         0.1349
     52 H18         5.1562   -9.4034   -1.3082 H         1 <0>         0.1305
@<TRIPOS>BOND
     1    1    2 1
     2    1   36 1
     3    1   37 1
     4    1   38 1
     5    2    3 1
     6    2   39 1
     7    3    8 ar
     8    3    4 ar
     9    4    5 ar
    10    5    6 ar
    11    5   40 1
    12    6    7 ar
    13    6   41 1
    14    7    8 ar
    15    7    9 1
    16    9   13 1
    17    9   10 2
    18   10   19 1
    19   10   11 1
    20   11   12 1
    21   11   14 1
    22   12   15 1
    23   12   13 2
    24   15   16 1
    25   15   17 1
    26   15   18 1
    27   19   24 ar
    28   19   20 ar
    29   20   21 ar
    30   20   42 1
    31   21   22 ar
    32   21   43 1
    33   22   23 ar
    34   22   44 1
    35   23   24 ar
    36   23   25 1
    37   24   45 1
    38   25   26 am
    39   25   46 1
    40   26   27 2
    41   26   28 1
    42   28   29 1
    43   28   47 1
    44   28   48 1
    45   29   34 ar
    46   29   30 ar
    47   30   31 ar
    48   30   49 1
    49   31   32 ar
    50   31   50 1
    51   32   33 ar
    52   32   35 1
    53   33   34 ar
    54   33   51 1
    55   34   52 1
@<TRIPOS>MOLECULE
CHEMBL257986
   60    63     0     0     0
SMALL
USER_CHARGES

@<TRIPOS>ATOM
      1 C1          0.5273    1.4679    0.7953 C.3       1 <0>        -0.1652
      2 C2          0.6974   -0.0429    0.9665 C.3       1 <0>         0.1864
      3 C3          1.5891   -0.3217    2.1781 C.3       1 <0>        -0.1653
      4 C4         -0.6726   -0.6892    1.1820 C.3       1 <0>        -0.1560
      5 N1          1.3182   -0.6038   -0.2361 N.am      1 <0>        -0.7387
      6 C5          2.5374   -0.1809   -0.6249 C.2       1 <0>         0.7082
      7 O1          3.1221    0.6662    0.0224 O.2       1 <0>        -0.5814
      8 N2          3.1085   -0.6969   -1.7313 N.am      1 <0>        -0.7450
      9 C6          4.4338   -0.2372   -2.1539 C.3       1 <0>         0.1279
     10 C7          4.8476   -0.9762   -3.4281 C.3       1 <0>         0.1297
     11 N3          6.1728   -0.5164   -3.8507 N.pl3     1 <0>        -0.6927
     12 C8          6.7594   -1.0464   -4.9869 C.ar      1 <0>         0.5783
     13 N4          6.1044   -1.9650   -5.6829 N.ar      1 <0>        -0.5699
     14 C9          6.6297   -2.4972   -6.7762 C.ar      1 <0>         0.2023
     15 C10         7.8805   -2.0862   -7.1954 C.ar      1 <0>        -0.2896
     16 C11         8.5505   -1.1137   -6.4409 C.ar      1 <0>         0.2989
     17 N5          7.9568   -0.6188   -5.3530 N.ar      1 <0>        -0.5444
     18 C12         9.8871   -0.6416   -6.8451 C.2       1 <0>         0.0085
     19 C13        10.4568    0.5874   -6.5593 C.2       1 <0>         0.1125
     20 N6         11.6810    0.6008   -7.1157 N.2       1 <0>        -0.4553
     21 C14        11.8986   -0.5340   -7.7212 C.2       1 <0>         0.2718
     22 N7         10.8237   -1.3363   -7.5783 N.pl3     1 <0>        -0.5476
     23 H1         10.7274   -2.2357   -7.9286 H         1 <0>         0.4224
     24 C15        13.1601   -0.8954   -8.4623 C.3       1 <0>        -0.0808
     25 C16        13.3962   -2.3742   -8.7758 C.3       1 <0>        -0.1750
     26 C17        14.2291   -1.6784   -7.6974 C.3       1 <0>        -0.1529
     27 C18         9.8329    1.6851   -5.7845 C.ar      1 <0>         0.0141
     28 C19         8.5325    2.0965   -6.0756 C.ar      1 <0>        -0.0665
     29 C20         7.9565    3.1191   -5.3503 C.ar      1 <0>        -0.1185
     30 C21         8.6659    3.7368   -4.3355 C.ar      1 <0>        -0.1014
     31 C22         9.9558    3.3342   -4.0412 C.ar      1 <0>        -0.1156
     32 C23        10.5418    2.3080   -4.7565 C.ar      1 <0>        -0.0083
     33 Cl1        12.1587    1.7989   -4.3819 Cl        1 <0>        -0.0561
     34 H2          1.5033    1.9284    0.6418 H         1 <0>         0.0800
     35 H3         -0.1079    1.6666   -0.0679 H         1 <0>         0.0525
     36 H4          0.0654    1.8852    1.6901 H         1 <0>         0.0629
     37 H5          1.1272    0.0956    3.0729 H         1 <0>         0.0629
     38 H6          1.7103   -1.3981    2.3000 H         1 <0>         0.0524
     39 H7          2.5651    0.1387    2.0246 H         1 <0>         0.0800
     40 H8         -1.3078   -0.4906    0.3188 H         1 <0>         0.0620
     41 H9         -0.5514   -1.7655    1.3039 H         1 <0>         0.0619
     42 H10        -1.1345   -0.2719    2.0767 H         1 <0>         0.0756
     43 H11         0.8518   -1.2795   -0.7526 H         1 <0>         0.3950
     44 H12         2.6421   -1.3726   -2.2477 H         1 <0>         0.3979
     45 H13         4.4012    0.8346   -2.3498 H         1 <0>         0.0745
     46 H14         5.1576   -0.4404   -1.3647 H         1 <0>         0.0738
     47 H15         4.8802   -2.0479   -3.2322 H         1 <0>         0.0740
     48 H16         4.1238   -0.7729   -4.2173 H         1 <0>         0.0750
     49 H17         6.6393    0.1593   -3.3343 H         1 <0>         0.4181
     50 H18         6.0859   -3.2452   -7.3342 H         1 <0>         0.1707
     51 H19         8.3313   -2.5046   -8.0831 H         1 <0>         0.1384
     52 H20        13.5000   -0.1645   -9.1960 H         1 <0>         0.1385
     53 H21        12.6391   -3.0857   -8.4461 H         1 <0>         0.0913
     54 H22        13.8915   -2.6165   -9.7161 H         1 <0>         0.1111
     55 H23        15.2723   -1.4629   -7.9282 H         1 <0>         0.1099
     56 H24        14.0200   -1.9321   -6.6582 H         1 <0>         0.0982
     57 H25         7.9776    1.6157   -6.8676 H         1 <0>         0.1176
     58 H26         6.9497    3.4384   -5.5754 H         1 <0>         0.1263
     59 H27         8.2104    4.5370   -3.7710 H         1 <0>         0.1311
     60 H28        10.5044    3.8201   -3.2479 H         1 <0>         0.1338
@<TRIPOS>BOND
     1    1    2 1
     2    1   34 1
     3    1   35 1
     4    1   36 1
     5    2    3 1
     6    2    4 1
     7    2    5 1
     8    3   37 1
     9    3   38 1
    10    3   39 1
    11    4   40 1
    12    4   41 1
    13    4   42 1
    14    5    6 am
    15    5   43 1
    16    6    7 2
    17    6    8 am
    18    8    9 1
    19    8   44 1
    20    9   10 1
    21    9   45 1
    22    9   46 1
    23   10   11 1
    24   10   47 1
    25   10   48 1
    26   11   12 1
    27   11   49 1
    28   12   17 ar
    29   12   13 ar
    30   13   14 ar
    31   14   15 ar
    32   14   50 1
    33   15   16 ar
    34   15   51 1
    35   16   17 ar
    36   16   18 1
    37   18   22 1
    38   18   19 2
    39   19   20 1
    40   19   27 1
    41   20   21 2
    42   21   22 1
    43   21   24 1
    44   22   23 1
    45   24   26 1
    46   24   25 1
    47   24   52 1
    48   25   26 1
    49   25   53 1
    50   25   54 1
    51   26   55 1
    52   26   56 1
    53   27   32 ar
    54   27   28 ar
    55   28   29 ar
    56   28   57 1
    57   29   30 ar
    58   29   58 1
    59   30   31 ar
    60   30   59 1
    61   31   32 ar
    62   31   60 1
    63   32   33 1
@<TRIPOS>MOLECULE
CHEMBL257986__1
   61    64     0     0     0
SMALL
USER_CHARGES

@<TRIPOS>ATOM
      1 C1         -0.0187    1.5258    0.0104 C.3       1 <0>        -0.1652
      2 C2          0.0021   -0.0041    0.0020 C.3       1 <0>         0.1860
      3 C3          0.7421   -0.5109    1.2415 C.3       1 <0>        -0.1653
      4 C4         -1.4333   -0.5336    0.0129 C.3       1 <0>        -0.1571
      5 N1          0.6878   -0.4765   -1.2033 N.am      1 <0>        -0.7366
      6 C5          1.9715   -0.1323   -1.4270 C.2       1 <0>         0.7090
      7 O1          2.5605    0.5704   -0.6285 O.2       1 <0>        -0.5812
      8 N2          2.6023   -0.5669   -2.5359 N.am      1 <0>        -0.7468
      9 C6          3.9977   -0.1927   -2.7790 C.3       1 <0>         0.1288
     10 C7          4.4699   -0.8123   -4.0959 C.3       1 <0>         0.1234
     11 N3          5.8652   -0.4381   -4.3390 N.pl3     1 <0>        -0.6835
     12 C8          6.5131   -0.8845   -5.4779 C.ar      1 <0>         0.5859
     13 N4          5.8530   -1.6452   -6.3397 N.ar      1 <0>        -0.5472
     14 C9          6.4357   -2.0930   -7.4417 C.ar      1 <0>         0.2156
     15 C10         7.7528   -1.7599   -7.6942 C.ar      1 <0>        -0.2726
     16 C11         8.4266   -0.9544   -6.7663 C.ar      1 <0>         0.2591
     17 N5          7.7733   -0.5362   -5.6804 N.ar      1 <0>        -0.5316
     18 C12         9.8325   -0.5712   -6.9887 C.2       1 <0>         0.1168
     19 C13        10.4824    0.5399   -6.4793 C.2       1 <0>         0.1337
     20 N6         11.7493    0.5043   -6.9288 N.pl3     1 <0>        -0.4655
     21 C14        11.9184   -0.5508   -7.6771 C.cat     1 <0>         0.3782
     22 N7         10.7664   -1.2496   -7.7406 N.pl3     1 <0>        -0.5000
     23 H1         10.6218   -2.0761   -8.2272 H         1 <0>         0.4636
     24 C15        13.2054   -0.9333   -8.3614 C.3       1 <0>        -0.1452
     25 C16        13.1033   -1.6325   -9.7185 C.3       1 <0>        -0.1424
     26 C17        13.5264   -2.4246   -8.4798 C.3       1 <0>        -0.1428
     27 C18         9.8914    1.5768   -5.6018 C.ar      1 <0>        -0.0706
     28 C19         9.7578    2.8877   -6.0587 C.ar      1 <0>        -0.0727
     29 C20         9.2061    3.8490   -5.2371 C.ar      1 <0>        -0.1169
     30 C21         8.7854    3.5155   -3.9618 C.ar      1 <0>        -0.0651
     31 C22         8.9147    2.2176   -3.5020 C.ar      1 <0>        -0.1177
     32 C23         9.4606    1.2448   -4.3166 C.ar      1 <0>         0.0399
     33 Cl1         9.6164   -0.3855   -3.7408 Cl        1 <0>        -0.0399
     34 H2          1.0039    1.9031    0.0027 H         1 <0>         0.0788
     35 H3         -0.5459    1.8868   -0.8726 H         1 <0>         0.0528
     36 H4         -0.5289    1.8773    0.9072 H         1 <0>         0.0646
     37 H5          0.2319   -0.1594    2.1383 H         1 <0>         0.0646
     38 H6          0.7568   -1.6008    1.2356 H         1 <0>         0.0528
     39 H7          1.7647   -0.1336    1.2338 H         1 <0>         0.0789
     40 H8         -1.9605   -0.1726   -0.8702 H         1 <0>         0.0626
     41 H9         -1.4185   -1.6235    0.0069 H         1 <0>         0.0626
     42 H10        -1.9435   -0.1821    0.9097 H         1 <0>         0.0773
     43 H11         0.2179   -1.0371   -1.8404 H         1 <0>         0.3957
     44 H12         2.1325   -1.1275   -3.1729 H         1 <0>         0.3988
     45 H13         4.0776    0.8927   -2.8390 H         1 <0>         0.0740
     46 H14         4.6196   -0.5582   -1.9619 H         1 <0>         0.0742
     47 H15         4.3899   -1.8977   -4.0359 H         1 <0>         0.0802
     48 H16         3.8480   -0.4468   -4.9130 H         1 <0>         0.0806
     49 H17         6.3351    0.1225   -3.7020 H         1 <0>         0.4182
     50 H18         5.8870   -2.7124   -8.1358 H         1 <0>         0.1818
     51 H19         8.2511   -2.1123   -8.5852 H         1 <0>         0.1446
     52 H20        14.0403   -0.2494   -8.2088 H         1 <0>         0.1650
     53 H21        12.1051   -1.8157  -10.1163 H         1 <0>         0.1086
     54 H22        13.8710   -1.4084  -10.4591 H         1 <0>         0.1326
     55 H23        14.5725   -2.7217   -8.4055 H         1 <0>         0.1326
     56 H24        12.8066   -3.1290   -8.0627 H         1 <0>         0.1085
     57 H25        10.0859    3.1499   -7.0537 H         1 <0>         0.1352
     58 H26         9.1026    4.8645   -5.5901 H         1 <0>         0.1425
     59 H27         8.3546    4.2720   -3.3226 H         1 <0>         0.1449
     60 H28         8.5846    1.9634   -2.5056 H         1 <0>         0.1467
     61 H29        12.4328    1.1626   -6.7276 H         1 <0>         0.4661
@<TRIPOS>BOND
     1    1    2 1
     2    1   34 1
     3    1   35 1
     4    1   36 1
     5    2    3 1
     6    2    4 1
     7    2    5 1
     8    3   37 1
     9    3   38 1
    10    3   39 1
    11    4   40 1
    12    4   41 1
    13    4   42 1
    14    5    6 am
    15    5   43 1
    16    6    7 2
    17    6    8 am
    18    8    9 1
    19    8   44 1
    20    9   10 1
    21    9   45 1
    22    9   46 1
    23   10   11 1
    24   10   47 1
    25   10   48 1
    26   11   12 1
    27   11   49 1
    28   12   17 ar
    29   12   13 ar
    30   13   14 ar
    31   14   15 ar
    32   14   50 1
    33   15   16 ar
    34   15   51 1
    35   16   17 ar
    36   16   18 1
    37   18   22 1
    38   18   19 2
    39   19   20 1
    40   19   27 1
    41   20   21 2
    42   20   61 1
    43   21   22 1
    44   21   24 1
    45   22   23 1
    46   24   26 1
    47   24   25 1
    48   24   52 1
    49   25   26 1
    50   25   53 1
    51   25   54 1
    52   26   55 1
    53   26   56 1
    54   27   32 ar
    55   27   28 ar
    56   28   29 ar
    57   28   57 1
    58   29   30 ar
    59   29   58 1
    60   30   31 ar
    61   30   59 1
    62   31   32 ar
    63   31   60 1
    64   32   33 1
@<TRIPOS>MOLECULE
CHEMBL257986__2
   60    63     0     0     0
SMALL
USER_CHARGES

@<TRIPOS>ATOM
      1 C1         -0.0187    1.5258    0.0104 C.3       1 <0>        -0.1650
      2 C2          0.0021   -0.0041    0.0020 C.3       1 <0>         0.1865
      3 C3          0.7421   -0.5109    1.2415 C.3       1 <0>        -0.1652
      4 C4         -1.4333   -0.5336    0.0129 C.3       1 <0>        -0.1560
      5 N1          0.6878   -0.4765   -1.2033 N.am      1 <0>        -0.7389
      6 C5          1.9715   -0.1323   -1.4270 C.2       1 <0>         0.7084
      7 O1          2.5605    0.5704   -0.6285 O.2       1 <0>        -0.5827
      8 N2          2.6023   -0.5669   -2.5359 N.am      1 <0>        -0.7444
      9 C6          3.9977   -0.1927   -2.7790 C.3       1 <0>         0.1284
     10 C7          4.4699   -0.8123   -4.0959 C.3       1 <0>         0.1313
     11 N3          5.8652   -0.4381   -4.3390 N.pl3     1 <0>        -0.6974
     12 C8          6.5131   -0.8845   -5.4778 C.ar      1 <0>         0.5700
     13 N4          5.8533   -1.6452   -6.3397 N.ar      1 <0>        -0.5713
     14 C9          6.4368   -2.0923   -7.4413 C.ar      1 <0>         0.1882
     15 C10         7.7543   -1.7584   -7.6925 C.ar      1 <0>        -0.2582
     16 C11         8.4264   -0.9539   -6.7653 C.ar      1 <0>         0.3027
     17 N5          7.7736   -0.5362   -5.6806 N.ar      1 <0>        -0.5454
     18 C12         9.8366   -0.5686   -6.9880 C.2       1 <0>         0.0594
     19 C13        10.4725    0.5469   -6.4707 C.2       1 <0>         0.0704
     20 N6         11.7640    0.5021   -6.9348 N.pl3     1 <0>        -0.5535
     21 C14        11.8795   -0.6109   -7.7033 C.2       1 <0>         0.2556
     22 N7         10.7400   -1.2421   -7.7268 N.2       1 <0>        -0.4518
     23 H1         12.4644    1.1467   -6.7481 H         1 <0>         0.4228
     24 C15        13.1331   -1.0514   -8.4141 C.3       1 <0>        -0.0780
     25 C16        14.2476   -0.0175   -8.5869 C.3       1 <0>        -0.1752
     26 C17        13.4117   -0.4502   -9.7931 C.3       1 <0>        -0.1539
     27 C18         9.8804    1.5786   -5.5957 C.ar      1 <0>        -0.0225
     28 C19         9.7442    2.8915   -6.0518 C.ar      1 <0>        -0.0892
     29 C20         9.1899    3.8501   -5.2295 C.ar      1 <0>        -0.1234
     30 C21         8.7692    3.5141   -3.9545 C.ar      1 <0>        -0.0916
     31 C22         8.9010    2.2162   -3.4950 C.ar      1 <0>        -0.1225
     32 C23         9.4484    1.2446   -4.3095 C.ar      1 <0>         0.0325
     33 Cl1         9.6067   -0.3857   -3.7342 Cl        1 <0>        -0.0439
     34 H2          1.0039    1.9031    0.0027 H         1 <0>         0.0798
     35 H3         -0.5459    1.8868   -0.8726 H         1 <0>         0.0524
     36 H4         -0.5289    1.8773    0.9072 H         1 <0>         0.0625
     37 H5          0.2319   -0.1594    2.1383 H         1 <0>         0.0625
     38 H6          0.7568   -1.6008    1.2356 H         1 <0>         0.0524
     39 H7          1.7647   -0.1336    1.2338 H         1 <0>         0.0799
     40 H8         -1.9605   -0.1726   -0.8702 H         1 <0>         0.0620
     41 H9         -1.4185   -1.6235    0.0069 H         1 <0>         0.0620
     42 H10        -1.9435   -0.1821    0.9097 H         1 <0>         0.0754
     43 H11         0.2179   -1.0371   -1.8404 H         1 <0>         0.3951
     44 H12         2.1325   -1.1275   -3.1729 H         1 <0>         0.3982
     45 H13         4.0776    0.8927   -2.8390 H         1 <0>         0.0727
     46 H14         4.6196   -0.5582   -1.9619 H         1 <0>         0.0729
     47 H15         4.3899   -1.8977   -4.0359 H         1 <0>         0.0728
     48 H16         3.8480   -0.4468   -4.9130 H         1 <0>         0.0729
     49 H17         6.3351    0.1225   -3.7020 H         1 <0>         0.4132
     50 H18         5.8889   -2.7118   -8.1359 H         1 <0>         0.1678
     51 H19         8.2535   -2.1103   -8.5832 H         1 <0>         0.1470
     52 H20        13.4286   -2.0874   -8.2477 H         1 <0>         0.1367
     53 H21        14.0741    0.9813   -8.1865 H         1 <0>         0.0913
     54 H22        15.2766   -0.3732   -8.5341 H         1 <0>         0.1103
     55 H23        13.8908   -1.0904  -10.5339 H         1 <0>         0.1093
     56 H24        12.6882    0.2641  -10.1863 H         1 <0>         0.0981
     57 H25        10.0726    3.1557   -7.0461 H         1 <0>         0.1270
     58 H26         9.0842    4.8656   -5.5814 H         1 <0>         0.1306
     59 H27         8.3363    4.2692   -3.3151 H         1 <0>         0.1333
     60 H28         8.5713    1.9611   -2.4987 H         1 <0>         0.1360
@<TRIPOS>BOND
     1    1    2 1
     2    1   34 1
     3    1   35 1
     4    1   36 1
     5    2    3 1
     6    2    4 1
     7    2    5 1
     8    3   37 1
     9    3   38 1
    10    3   39 1
    11    4   40 1
    12    4   41 1
    13    4   42 1
    14    5    6 am
    15    5   43 1
    16    6    7 2
    17    6    8 am
    18    8    9 1
    19    8   44 1
    20    9   10 1
    21    9   45 1
    22    9   46 1
    23   10   11 1
    24   10   47 1
    25   10   48 1
    26   11   12 1
    27   11   49 1
    28   12   17 ar
    29   12   13 ar
    30   13   14 ar
    31   14   15 ar
    32   14   50 1
    33   15   16 ar
    34   15   51 1
    35   16   17 ar
    36   16   18 1
    37   18   22 1
    38   18   19 2
    39   19   27 1
    40   19   20 1
    41   20   21 1
    42   20   23 1
    43   21   24 1
    44   21   22 2
    45   24   26 1
    46   24   25 1
    47   24   52 1
    48   25   26 1
    49   25   53 1
    50   25   54 1
    51   26   55 1
    52   26   56 1
    53   27   32 ar
    54   27   28 ar
    55   28   29 ar
    56   28   57 1
    57   29   30 ar
    58   29   58 1
    59   30   31 ar
    60   30   59 1
    61   31   32 ar
    62   31   60 1
    63   32   33 1
@<TRIPOS>MOLECULE
CHEMBL401710
   52    56     0     0     0
SMALL
USER_CHARGES

@<TRIPOS>ATOM
      1 C1         -0.0234    1.3201   -0.5540 C.ar      1 <0>        -0.0946
      2 C2          0.9405    1.8144    0.3062 C.ar      1 <0>        -0.1018
      3 C3          2.1506    1.1627    0.4394 C.ar      1 <0>        -0.0062
      4 C4          2.4002    0.0029   -0.2961 C.ar      1 <0>         0.0305
      5 C5          1.4248   -0.4904   -1.1614 C.ar      1 <0>        -0.0586
      6 C6          0.2182    0.1703   -1.2861 C.ar      1 <0>        -0.0340
      7 Cl1        -0.9976   -0.4424   -2.3631 Cl        1 <0>        -0.0638
      8 C7          3.6966   -0.7007   -0.1582 C.2       1 <0>         0.1047
      9 C8          3.8753   -2.0584    0.0450 C.2       1 <0>         0.0179
     10 N1          5.2365   -2.2595    0.1105 N.pl3     1 <0>        -0.5463
     11 H1          5.6860   -3.1083    0.2462 H         1 <0>         0.4236
     12 C9          5.8289   -1.0583   -0.0494 C.2       1 <0>         0.2730
     13 N2          4.9174   -0.1395   -0.2130 N.2       1 <0>        -0.4532
     14 C10         7.3162   -0.8156   -0.0455 C.3       1 <0>        -0.0816
     15 C11         8.2303   -2.0284   -0.2308 C.3       1 <0>        -0.1749
     16 C12         8.0676   -1.0128   -1.3635 C.3       1 <0>        -0.1522
     17 C13         2.8218   -3.0820    0.1671 C.ar      1 <0>         0.2948
     18 C14         3.0845   -4.4180   -0.1659 C.ar      1 <0>        -0.2895
     19 C15         2.0652   -5.3409   -0.0350 C.ar      1 <0>         0.2034
     20 N3          0.8787   -4.9404    0.3978 N.ar      1 <0>        -0.5670
     21 C16         0.6563   -3.6708    0.7061 C.ar      1 <0>         0.5809
     22 N4          1.6039   -2.7530    0.6017 N.ar      1 <0>        -0.5476
     23 N5         -0.5986   -3.2960    1.1541 N.pl3     1 <0>        -0.6917
     24 C17        -1.6600   -4.2975    1.2822 C.3       1 <0>         0.1221
     25 C18        -2.9362   -3.6257    1.7931 C.3       1 <0>         0.1411
     26 N6         -3.9976   -4.6273    1.9212 N.am      1 <0>        -0.6298
     27 C19        -4.9503   -4.9992    0.8645 C.3       1 <0>         0.0907
     28 C20        -5.8305   -6.0786    1.5240 C.3       1 <0>         0.0916
     29 N7         -5.2803   -6.2003    2.8823 N.am      1 <0>        -0.7413
     30 C21        -4.2509   -5.3540    3.0176 C.2       1 <0>         0.6993
     31 O1         -3.6071   -5.2517    4.0440 O.2       1 <0>        -0.5813
     32 Cl2         3.3594    1.7849    1.5191 Cl        1 <0>        -0.0445
     33 H2         -0.9701    1.8308   -0.6514 H         1 <0>         0.1425
     34 H3          0.7464    2.7121    0.8746 H         1 <0>         0.1448
     35 H4          1.6124   -1.3871   -1.7334 H         1 <0>         0.1296
     36 H5          7.6612   -0.0215    0.6166 H         1 <0>         0.1383
     37 H6          9.1770   -2.0324    0.3095 H         1 <0>         0.1111
     38 H7          7.7560   -3.0018   -0.3557 H         1 <0>         0.0918
     39 H8          7.4862   -1.3180   -2.2335 H         1 <0>         0.0989
     40 H9          8.9073   -0.3486   -1.5684 H         1 <0>         0.1100
     41 H10         4.0607   -4.7185   -0.5169 H         1 <0>         0.1380
     42 H11         2.2335   -6.3785   -0.2832 H         1 <0>         0.1704
     43 H12        -0.7752   -2.3701    1.3832 H         1 <0>         0.4152
     44 H13        -1.8521   -4.7499    0.3093 H         1 <0>         0.0704
     45 H14        -1.3486   -5.0690    1.9865 H         1 <0>         0.0734
     46 H15        -2.7442   -3.1734    2.7660 H         1 <0>         0.0925
     47 H16        -3.2476   -2.8543    1.0888 H         1 <0>         0.0892
     48 H17        -5.5534   -4.1392    0.5732 H         1 <0>         0.0853
     49 H18        -4.4244   -5.4087    0.0021 H         1 <0>         0.0841
     50 H19        -6.8706   -5.7546    1.5602 H         1 <0>         0.0849
     51 H20        -5.7416   -7.0241    0.9891 H         1 <0>         0.0845
     52 H21        -5.6080   -6.8010    3.5698 H         1 <0>         0.4313
@<TRIPOS>BOND
     1    1    6 ar
     2    1    2 ar
     3    1   33 1
     4    2    3 ar
     5    2   34 1
     6    3    4 ar
     7    3   32 1
     8    4    5 ar
     9    4    8 1
    10    5    6 ar
    11    5   35 1
    12    6    7 1
    13    8   13 1
    14    8    9 2
    15    9   10 1
    16    9   17 1
    17   10   11 1
    18   10   12 1
    19   12   13 2
    20   12   14 1
    21   14   16 1
    22   14   15 1
    23   14   36 1
    24   15   16 1
    25   15   37 1
    26   15   38 1
    27   16   39 1
    28   16   40 1
    29   17   22 ar
    30   17   18 ar
    31   18   19 ar
    32   18   41 1
    33   19   20 ar
    34   19   42 1
    35   20   21 ar
    36   21   22 ar
    37   21   23 1
    38   23   24 1
    39   23   43 1
    40   24   25 1
    41   24   44 1
    42   24   45 1
    43   25   26 1
    44   25   46 1
    45   25   47 1
    46   26   30 am
    47   26   27 1
    48   27   28 1
    49   27   48 1
    50   27   49 1
    51   28   29 1
    52   28   50 1
    53   28   51 1
    54   29   30 am
    55   29   52 1
    56   30   31 2
@<TRIPOS>MOLECULE
CHEMBL401710__1
   53    57     0     0     0
SMALL
USER_CHARGES

@<TRIPOS>ATOM
      1 C1         -0.0167    1.3802    0.0096 C.ar      1 <0>        -0.0589
      2 C2          1.1684    2.0936    0.0021 C.ar      1 <0>        -0.1037
      3 C3          2.3782    1.4279   -0.0130 C.ar      1 <0>         0.0401
      4 C4          2.4036    0.0323   -0.0208 C.ar      1 <0>        -0.0532
      5 C5          1.2059   -0.6811   -0.0132 C.ar      1 <0>        -0.0663
      6 C6          0.0021   -0.0041    0.0020 C.ar      1 <0>        -0.0397
      7 Cl1        -1.4904   -0.8907    0.0115 Cl        1 <0>        -0.0358
      8 C7          3.6981   -0.6878   -0.0375 C.2       1 <0>         0.1257
      9 C8          4.6515   -0.6845    0.9663 C.2       1 <0>         0.1261
     10 N1          5.6798   -1.4851    0.5199 N.pl3     1 <0>        -0.5002
     11 H1          6.5002   -1.6860    0.9969 H         1 <0>         0.4646
     12 C9          5.3350   -1.9385   -0.7028 C.cat     1 <0>         0.3818
     13 N2          4.1617   -1.4703   -1.0281 N.pl3     1 <0>        -0.4648
     14 C10         6.1744   -2.8509   -1.5596 C.3       1 <0>        -0.1460
     15 C11         7.6944   -2.6990   -1.4748 C.3       1 <0>        -0.1424
     16 C12         7.0112   -3.9160   -0.8481 C.3       1 <0>        -0.1419
     17 C13         4.5808    0.0316    2.2527 C.ar      1 <0>         0.2560
     18 C14         5.3098   -0.4212    3.3610 C.ar      1 <0>        -0.2716
     19 C15         5.2112    0.2832    4.5452 C.ar      1 <0>         0.2165
     20 N3          4.4372    1.3571    4.5989 N.ar      1 <0>        -0.5448
     21 C16         3.7581    1.7643    3.5362 C.ar      1 <0>         0.5869
     22 N4          3.8261    1.1245    2.3798 N.ar      1 <0>        -0.5354
     23 N5          2.9610    2.8914    3.6369 N.pl3     1 <0>        -0.6834
     24 C17         2.8762    3.6175    4.9065 C.3       1 <0>         0.1149
     25 C18         1.9357    4.8138    4.7480 C.3       1 <0>         0.1422
     26 N6          1.8509    5.5399    6.0176 N.am      1 <0>        -0.6319
     27 C19         0.8786    5.2736    7.0882 C.3       1 <0>         0.0911
     28 C20         1.2314    6.3092    8.1735 C.3       1 <0>         0.0902
     29 N7          2.3651    7.0491    7.5991 N.am      1 <0>        -0.7390
     30 C21         2.6503    6.5481    6.3900 C.2       1 <0>         0.7000
     31 O1          3.5509    6.9726    5.6921 O.2       1 <0>        -0.5814
     32 Cl2         3.8644    2.3250   -0.0230 Cl        1 <0>        -0.0272
     33 H2         -0.9604    1.9052    0.0260 H         1 <0>         0.1554
     34 H3          1.1474    3.1734    0.0078 H         1 <0>         0.1569
     35 H4          1.2193   -1.7610   -0.0195 H         1 <0>         0.1462
     36 H5          5.7474   -3.1105   -2.5283 H         1 <0>         0.1657
     37 H6          8.2679   -2.8585   -2.3880 H         1 <0>         0.1330
     38 H7          8.0874   -1.9391   -0.7994 H         1 <0>         0.1087
     39 H8          6.9546   -3.9568    0.2397 H         1 <0>         0.1091
     40 H9          7.1351   -4.8762   -1.3489 H         1 <0>         0.1330
     41 H10         5.9335   -1.3002    3.2909 H         1 <0>         0.1449
     42 H11         5.7592   -0.0385    5.4185 H         1 <0>         0.1818
     43 H12         2.4586    3.2006    2.8669 H         1 <0>         0.4156
     44 H13         2.4916    2.9530    5.6801 H         1 <0>         0.0760
     45 H14         3.8678    3.9700    5.1904 H         1 <0>         0.0796
     46 H15         2.3203    5.4784    3.9744 H         1 <0>         0.0931
     47 H16         0.9441    4.4613    4.4641 H         1 <0>         0.0887
     48 H17        -0.1386    5.4280    6.7283 H         1 <0>         0.0862
     49 H18         1.0001    4.2606    7.4720 H         1 <0>         0.0840
     50 H19         0.3894    6.9778    8.3525 H         1 <0>         0.0873
     51 H20         1.5281    5.8105    9.0961 H         1 <0>         0.0864
     52 H21         2.8344    7.7809    8.0292 H         1 <0>         0.4334
     53 H22         3.6958   -1.6564   -1.8583 H         1 <0>         0.4667
@<TRIPOS>BOND
     1    1    6 ar
     2    1    2 ar
     3    1   33 1
     4    2    3 ar
     5    2   34 1
     6    3    4 ar
     7    3   32 1
     8    4    5 ar
     9    4    8 1
    10    5    6 ar
    11    5   35 1
    12    6    7 1
    13    8   13 1
    14    8    9 2
    15    9   10 1
    16    9   17 1
    17   10   11 1
    18   10   12 1
    19   12   13 2
    20   12   14 1
    21   13   53 1
    22   14   16 1
    23   14   15 1
    24   14   36 1
    25   15   16 1
    26   15   37 1
    27   15   38 1
    28   16   39 1
    29   16   40 1
    30   17   22 ar
    31   17   18 ar
    32   18   19 ar
    33   18   41 1
    34   19   20 ar
    35   19   42 1
    36   20   21 ar
    37   21   22 ar
    38   21   23 1
    39   23   24 1
    40   23   43 1
    41   24   25 1
    42   24   44 1
    43   24   45 1
    44   25   26 1
    45   25   46 1
    46   25   47 1
    47   26   30 am
    48   26   27 1
    49   27   28 1
    50   27   48 1
    51   27   49 1
    52   28   29 1
    53   28   50 1
    54   28   51 1
    55   29   30 am
    56   29   52 1
    57   30   31 2
@<TRIPOS>MOLECULE
CHEMBL401710__2
   52    56     0     0     0
SMALL
USER_CHARGES

@<TRIPOS>ATOM
      1 C1         -0.0167    1.3805    0.0096 C.ar      1 <0>        -0.0839
      2 C2          1.1681    2.0948    0.0022 C.ar      1 <0>        -0.1096
      3 C3          2.3782    1.4305   -0.0134 C.ar      1 <0>         0.0333
      4 C4          2.4045    0.0331   -0.0211 C.ar      1 <0>        -0.0054
      5 C5          1.2053   -0.6813   -0.0130 C.ar      1 <0>        -0.0809
      6 C6          0.0021   -0.0041    0.0020 C.ar      1 <0>        -0.0401
      7 Cl1        -1.4905   -0.8905    0.0120 Cl        1 <0>        -0.0582
      8 C7          3.6952   -0.6843   -0.0382 C.2       1 <0>         0.0614
      9 C8          4.6591   -0.6843    0.9555 C.2       1 <0>         0.0689
     10 N1          5.6732   -1.4651    0.5343 N.2       1 <0>        -0.4515
     11 H1          3.7307   -1.6963   -1.8764 H         1 <0>         0.4235
     12 C9          5.3952   -1.9410   -0.6463 C.2       1 <0>         0.2604
     13 N2          4.1771   -1.4899   -1.0403 N.pl3     1 <0>        -0.5525
     14 C10         6.2855   -2.8556   -1.4476 C.3       1 <0>        -0.0793
     15 C11         5.9856   -3.0035   -2.9406 C.3       1 <0>        -0.1747
     16 C12         7.2119   -2.2122   -2.4813 C.3       1 <0>        -0.1536
     17 C13         4.5886    0.0397    2.2429 C.ar      1 <0>         0.2996
     18 C14         5.3192   -0.4065    3.3506 C.ar      1 <0>        -0.2574
     19 C15         5.2215    0.3028    4.5324 C.ar      1 <0>         0.1892
     20 N3          4.4458    1.3754    4.5828 N.ar      1 <0>        -0.5689
     21 C16         3.7647    1.7762    3.5191 C.ar      1 <0>         0.5711
     22 N4          3.8328    1.1305    2.3656 N.ar      1 <0>        -0.5491
     23 N5          2.9654    2.9022    3.6152 N.pl3     1 <0>        -0.6978
     24 C17         2.8806    3.6343    4.8814 C.3       1 <0>         0.1235
     25 C18         1.9375    4.8279    4.7181 C.3       1 <0>         0.1415
     26 N6          1.8527    5.5600    5.9842 N.am      1 <0>        -0.6299
     27 C19         0.8821    5.2970    7.0572 C.3       1 <0>         0.0908
     28 C20         1.2341    6.3385    8.1370 C.3       1 <0>         0.0917
     29 N7          2.3656    7.0779    7.5577 N.am      1 <0>        -0.7415
     30 C21         2.6505    6.5716    6.3508 C.2       1 <0>         0.6993
     31 O1          3.5494    6.9945    5.6498 O.2       1 <0>        -0.5810
     32 Cl2         3.8637    2.3288   -0.0239 Cl        1 <0>        -0.0311
     33 H2         -0.9606    1.9051    0.0260 H         1 <0>         0.1444
     34 H3          1.1462    3.1745    0.0081 H         1 <0>         0.1464
     35 H4          1.2185   -1.7612   -0.0193 H         1 <0>         0.1390
     36 H5          6.6547   -3.7342   -0.9186 H         1 <0>         0.1378
     37 H6          6.1574   -3.9796   -3.3942 H         1 <0>         0.1108
     38 H7          5.1444   -2.4393   -3.3432 H         1 <0>         0.0915
     39 H8          7.1774   -1.1274   -2.5819 H         1 <0>         0.0984
     40 H9          8.1905   -2.6677   -2.6328 H         1 <0>         0.1097
     41 H10         5.9443   -1.2846    3.2831 H         1 <0>         0.1473
     42 H11         5.7715   -0.0143    5.4061 H         1 <0>         0.1677
     43 H12         2.4615    3.2065    2.8443 H         1 <0>         0.4105
     44 H13         2.4981    2.9727    5.6587 H         1 <0>         0.0684
     45 H14         3.8718    3.9901    5.1624 H         1 <0>         0.0723
     46 H15         2.3200    5.4895    3.9408 H         1 <0>         0.0917
     47 H16         0.9463    4.4721    4.4370 H         1 <0>         0.0872
     48 H17        -0.1358    5.4476    6.6977 H         1 <0>         0.0847
     49 H18         1.0060    4.2862    7.4458 H         1 <0>         0.0842
     50 H19         0.3910    7.0064    8.3136 H         1 <0>         0.0845
     51 H20         1.5328    5.8449    9.0617 H         1 <0>         0.0845
     52 H21         2.8340    7.8128    7.9838 H         1 <0>         0.4312
@<TRIPOS>BOND
     1    1    6 ar
     2    1    2 ar
     3    1   33 1
     4    2    3 ar
     5    2   34 1
     6    3    4 ar
     7    3   32 1
     8    4    5 ar
     9    4    8 1
    10    5    6 ar
    11    5   35 1
    12    6    7 1
    13    8    9 2
    14    8   13 1
    15    9   10 1
    16    9   17 1
    17   10   12 2
    18   11   13 1
    19   12   14 1
    20   12   13 1
    21   14   16 1
    22   14   15 1
    23   14   36 1
    24   15   16 1
    25   15   37 1
    26   15   38 1
    27   16   39 1
    28   16   40 1
    29   17   22 ar
    30   17   18 ar
    31   18   19 ar
    32   18   41 1
    33   19   20 ar
    34   19   42 1
    35   20   21 ar
    36   21   22 ar
    37   21   23 1
    38   23   24 1
    39   23   43 1
    40   24   25 1
    41   24   44 1
    42   24   45 1
    43   25   26 1
    44   25   46 1
    45   25   47 1
    46   26   30 am
    47   26   27 1
    48   27   28 1
    49   27   48 1
    50   27   49 1
    51   28   29 1
    52   28   50 1
    53   28   51 1
    54   29   30 am
    55   29   52 1
    56   30   31 2
@<TRIPOS>MOLECULE
CHEMBL583106
   32    34     0     0     0
SMALL
USER_CHARGES

@<TRIPOS>ATOM
      1 C1          1.0539    1.3681   -0.0160 C.3       1 <0>        -0.1129
      2 C2          0.6755   -0.0906   -0.0147 C.ar      1 <0>        -0.1062
      3 C3          0.4663   -0.7520   -1.2134 C.ar      1 <0>        -0.0781
      4 C4          0.1198   -2.0877   -1.2284 C.ar      1 <0>        -0.1326
      5 C5         -0.0231   -2.7851   -0.0337 C.ar      1 <0>         0.1427
      6 C6          0.1895   -2.1124    1.1768 C.ar      1 <0>        -0.1071
      7 C7          0.5435   -0.7675    1.1811 C.ar      1 <0>        -0.0590
      8 C8         -0.0332   -3.1063    2.2516 C.2       1 <0>        -0.1496
      9 C9          0.0604   -2.9081    3.5988 C.2       1 <0>         0.0235
     10 C10        -0.0290   -4.0485    4.5153 C.ar      1 <0>        -0.0923
     11 C11         0.5889   -5.2635    4.1887 C.ar      1 <0>         0.0073
     12 C12         0.5020   -6.3313    5.0536 C.ar      1 <0>        -0.1224
     13 C13        -0.1973   -6.2059    6.2497 C.ar      1 <0>         0.1818
     14 C14        -0.8130   -5.0025    6.5788 C.ar      1 <0>        -0.1280
     15 C15        -0.7278   -3.9264    5.7242 C.ar      1 <0>        -0.0339
     16 Br1        -1.7623   -4.8422    8.2064 Br        1 <0>        -0.0199
     17 O1         -0.2797   -7.2619    7.0987 O.3       1 <0>        -0.4722
     18 Br2         1.3344   -7.9715    4.6146 Br        1 <0>        -0.0193
     19 C16        -0.3783   -4.3549    1.5511 C.2       1 <0>         0.5528
     20 O2         -0.6375   -5.4223    2.0762 O.2       1 <0>        -0.4883
     21 N1         -0.3567   -4.1084    0.2302 N.am      1 <0>        -0.6533
     22 H1          2.1392    1.4619   -0.0525 H         1 <0>         0.0719
     23 H2          0.6175    1.8559   -0.8876 H         1 <0>         0.0686
     24 H3          0.6786    1.8416    0.8913 H         1 <0>         0.0678
     25 H4          0.5750   -0.2171   -2.1454 H         1 <0>         0.1332
     26 H5         -0.0410   -2.5923   -2.1696 H         1 <0>         0.1301
     27 H6          0.7105   -0.2537    2.1162 H         1 <0>         0.1302
     28 H7          0.2002   -1.9111    3.9895 H         1 <0>         0.1528
     29 H8          1.1317   -5.3621    3.2603 H         1 <0>         0.1435
     30 H9         -1.2020   -2.9912    5.9829 H         1 <0>         0.1484
     31 H10         0.4352   -7.3007    7.7486 H         1 <0>         0.4007
     32 H11        -0.5500   -4.7698   -0.4524 H         1 <0>         0.4197
@<TRIPOS>BOND
     1    1    2 1
     2    1   22 1
     3    1   23 1
     4    1   24 1
     5    2    7 ar
     6    2    3 ar
     7    3    4 ar
     8    3   25 1
     9    4    5 ar
    10    4   26 1
    11    5   21 1
    12    5    6 ar
    13    6    7 ar
    14    6    8 1
    15    7   27 1
    16    8    9 2
    17    8   19 1
    18    9   10 1
    19    9   28 1
    20   10   15 ar
    21   10   11 ar
    22   11   12 ar
    23   11   29 1
    24   12   13 ar
    25   12   18 1
    26   13   14 ar
    27   13   17 1
    28   14   15 ar
    29   14   16 1
    30   15   30 1
    31   17   31 1
    32   19   20 2
    33   19   21 am
    34   21   32 1
@<TRIPOS>MOLECULE
CHEMBL583106__1
   31    33     0     0     0
SMALL
USER_CHARGES

@<TRIPOS>ATOM
      1 C1          1.0539    1.3681   -0.0160 C.3       1 <0>        -0.1073
      2 C2          0.6755   -0.0906   -0.0147 C.ar      1 <0>        -0.1124
      3 C3          0.4663   -0.7520   -1.2134 C.ar      1 <0>        -0.0985
      4 C4          0.1198   -2.0877   -1.2284 C.ar      1 <0>        -0.1376
      5 C5         -0.0231   -2.7851   -0.0337 C.ar      1 <0>         0.1346
      6 C6          0.1895   -2.1124    1.1768 C.ar      1 <0>        -0.0749
      7 C7          0.5435   -0.7675    1.1811 C.ar      1 <0>        -0.0773
      8 C8         -0.0332   -3.1063    2.2516 C.2       1 <0>        -0.2374
      9 C9          0.0604   -2.9081    3.5988 C.2       1 <0>         0.1017
     10 C10        -0.0290   -4.0485    4.5153 C.ar      1 <0>        -0.2533
     11 C11         0.5889   -5.2635    4.1887 C.ar      1 <0>         0.0554
     12 C12         0.5020   -6.3313    5.0536 C.ar      1 <0>        -0.2232
     13 C13        -0.1973   -6.2059    6.2497 C.ar      1 <0>         0.3278
     14 C14        -0.8130   -5.0025    6.5788 C.ar      1 <0>        -0.2275
     15 C15        -0.7278   -3.9264    5.7242 C.ar      1 <0>         0.0110
     16 Br1        -1.7623   -4.8422    8.2064 Br        1 <0>        -0.0837
     17 O1         -0.2797   -7.2619    7.0987 O.3       1 <0>        -0.6437
     18 Br2         1.3344   -7.9715    4.6146 Br        1 <0>        -0.0838
     19 C16        -0.3783   -4.3549    1.5511 C.2       1 <0>         0.5518
     20 O2         -0.6375   -5.4223    2.0762 O.2       1 <0>        -0.4860
     21 N1         -0.3567   -4.1084    0.2302 N.am      1 <0>        -0.6608
     22 H1          2.1392    1.4619   -0.0525 H         1 <0>         0.0664
     23 H2          0.6175    1.8559   -0.8876 H         1 <0>         0.0629
     24 H3          0.6786    1.8416    0.8913 H         1 <0>         0.0641
     25 H4          0.5750   -0.2171   -2.1454 H         1 <0>         0.1238
     26 H5         -0.0410   -2.5923   -2.1696 H         1 <0>         0.1215
     27 H6          0.7105   -0.2537    2.1162 H         1 <0>         0.1242
     28 H7          0.2002   -1.9111    3.9895 H         1 <0>         0.1279
     29 H8          1.1317   -5.3621    3.2603 H         1 <0>         0.1110
     30 H9         -1.2020   -2.9912    5.9829 H         1 <0>         0.1132
     31 H10        -0.5500   -4.7698   -0.4524 H         1 <0>         0.4102
@<TRIPOS>BOND
     1    1    2 1
     2    1   22 1
     3    1   23 1
     4    1   24 1
     5    2    7 ar
     6    2    3 ar
     7    3    4 ar
     8    3   25 1
     9    4    5 ar
    10    4   26 1
    11    5   21 1
    12    5    6 ar
    13    6    7 ar
    14    6    8 1
    15    7   27 1
    16    8    9 2
    17    8   19 1
    18    9   10 1
    19    9   28 1
    20   10   15 ar
    21   10   11 ar
    22   11   12 ar
    23   11   29 1
    24   12   13 ar
    25   12   18 1
    26   13   14 ar
    27   13   17 1
    28   14   15 ar
    29   14   16 1
    30   15   30 1
    31   19   20 2
    32   19   21 am
    33   21   31 1
@<TRIPOS>MOLECULE
CHEMBL248398
   54    58     0     0     0
SMALL
USER_CHARGES

@<TRIPOS>ATOM
      1 C1         -0.0036    1.2846    0.0416 C.ar      1 <0>        -0.1881
      2 C2          1.1433    2.0398   -0.1471 C.ar      1 <0>        -0.0327
      3 C3          2.3592    1.4228   -0.3574 C.ar      1 <0>        -0.2105
      4 C4          2.4413    0.0360   -0.3812 C.ar      1 <0>         0.2840
      5 C5          1.2818   -0.7316   -0.1904 C.ar      1 <0>        -0.2339
      6 C6          0.0578   -0.0914    0.0214 C.ar      1 <0>        -0.0324
      7 C7          1.3546   -2.2036   -0.2137 C.2       1 <0>         0.5768
      8 O1          2.4343   -2.7579   -0.2920 O.2       1 <0>        -0.5289
      9 N1          0.2246   -2.9354   -0.1483 N.am      1 <0>        -0.6651
     10 C8          0.2983   -4.3310   -0.0611 C.ar      1 <0>         0.1721
     11 C9         -0.6775   -5.1167   -0.6601 C.ar      1 <0>        -0.1252
     12 C10        -0.6060   -6.4939   -0.5749 C.ar      1 <0>        -0.0576
     13 C11         0.4389   -7.0950    0.1082 C.ar      1 <0>         0.0088
     14 C12         1.4192   -6.3096    0.7102 C.ar      1 <0>         0.0504
     15 C13         1.3500   -4.9295    0.6193 C.ar      1 <0>        -0.0885
     16 O2          2.3276   -7.1314    1.3127 O.3       1 <0>        -0.2844
     17 C14         1.6754   -8.4103    1.4234 C.3       1 <0>         0.5709
     18 O3          0.7339   -8.4095    0.3341 O.3       1 <0>        -0.2846
     19 F1          2.6008   -9.4486    1.2726 F         1 <0>        -0.1149
     20 F2          1.0093   -8.5179    2.6489 F         1 <0>        -0.1524
     21 N2          3.6641   -0.5874   -0.5931 N.pl3     1 <0>        -0.7221
     22 C15         4.8468    0.2123   -0.9216 C.3       1 <0>         0.1560
     23 C16         6.0346   -0.6977   -1.1007 C.ar      1 <0>        -0.0679
     24 C17         6.8430   -1.0283   -0.0242 C.ar      1 <0>        -0.1266
     25 C18         7.9274   -1.8679   -0.2217 C.ar      1 <0>         0.1015
     26 N3          8.1977   -2.3530   -1.4139 N.ar      1 <0>        -0.4537
     27 C19         7.4493   -2.0614   -2.4704 C.ar      1 <0>         0.0778
     28 C20         6.3402   -1.2278   -2.3442 C.ar      1 <0>        -0.0889
     29 C21         7.7928   -2.6317   -3.7941 C.2       1 <0>         0.5772
     30 O4          7.1109   -2.3680   -4.7647 O.2       1 <0>        -0.5278
     31 N4          8.8615   -3.4429   -3.9215 N.am      1 <0>        -0.6826
     32 C22         9.2011   -4.0068   -5.2303 C.3       1 <0>         0.0733
     33 C23         9.5909   -5.4854   -5.2829 C.3       1 <0>        -0.1905
     34 C24        10.6585   -4.4056   -5.4711 C.3       1 <0>        -0.1858
     35 H1         -0.9497    1.7776    0.2099 H         1 <0>         0.1278
     36 H2          1.0846    3.1180   -0.1298 H         1 <0>         0.1288
     37 H3          3.2481    2.0185   -0.5040 H         1 <0>         0.1302
     38 H4         -0.8390   -0.6748    0.1691 H         1 <0>         0.1246
     39 H5         -0.6397   -2.4952   -0.1616 H         1 <0>         0.4181
     40 H6         -1.4932   -4.6507   -1.1928 H         1 <0>         0.1518
     41 H7         -1.3663   -7.1029   -1.0412 H         1 <0>         0.1517
     42 H8          2.1115   -4.3188    1.0815 H         1 <0>         0.1552
     43 H9          3.7351   -1.5523   -0.5236 H         1 <0>         0.4211
     44 H10         4.6682    0.7626   -1.8454 H         1 <0>         0.0804
     45 H11         5.0463    0.9151   -0.1128 H         1 <0>         0.0809
     46 H12         6.6299   -0.6350    0.9588 H         1 <0>         0.1449
     47 H13         8.5596   -2.1272    0.6147 H         1 <0>         0.1685
     48 H14         5.7294   -0.9950   -3.2039 H         1 <0>         0.1505
     49 H15         9.4058   -3.6534   -3.1467 H         1 <0>         0.4129
     50 H16         8.6438   -3.6026   -6.0754 H         1 <0>         0.1401
     51 H17         9.5947   -6.0386   -4.3437 H         1 <0>         0.0986
     52 H18         9.2900   -6.0543   -6.1626 H         1 <0>         0.1049
     53 H19        11.0598   -4.2642   -6.4746 H         1 <0>         0.1061
     54 H20        11.3646   -4.2485   -4.6557 H         1 <0>         0.0992
@<TRIPOS>BOND
     1    1    6 ar
     2    1    2 ar
     3    1   35 1
     4    2    3 ar
     5    2   36 1
     6    3    4 ar
     7    3   37 1
     8    4    5 ar
     9    4   21 1
    10    5    6 ar
    11    5    7 1
    12    6   38 1
    13    7    8 2
    14    7    9 am
    15    9   10 1
    16    9   39 1
    17   10   15 ar
    18   10   11 ar
    19   11   12 ar
    20   11   40 1
    21   12   13 ar
    22   12   41 1
    23   13   18 1
    24   13   14 ar
    25   14   15 ar
    26   14   16 1
    27   15   42 1
    28   16   17 1
    29   17   18 1
    30   17   19 1
    31   17   20 1
    32   21   22 1
    33   21   43 1
    34   22   23 1
    35   22   44 1
    36   22   45 1
    37   23   28 ar
    38   23   24 ar
    39   24   25 ar
    40   24   46 1
    41   25   26 ar
    42   25   47 1
    43   26   27 ar
    44   27   28 ar
    45   27   29 1
    46   28   48 1
    47   29   30 2
    48   29   31 am
    49   31   32 1
    50   31   49 1
    51   32   34 1
    52   32   33 1
    53   32   50 1
    54   33   34 1
    55   33   51 1
    56   33   52 1
    57   34   53 1
    58   34   54 1
@<TRIPOS>MOLECULE
CHEMBL497671
   50    54     0     0     0
SMALL
USER_CHARGES

@<TRIPOS>ATOM
      1 C1         -0.0168    1.3908    0.0097 C.ar      1 <0>        -0.1109
      2 C2          1.1640    2.0945    0.0022 C.ar      1 <0>        -0.0639
      3 C3          2.3915    1.4155   -0.0131 C.ar      1 <0>        -0.0694
      4 C4          2.4067    0.0213   -0.0207 C.ar      1 <0>        -0.0571
      5 C5          1.2202   -0.6823   -0.0128 C.ar      1 <0>        -0.1061
      6 C6          0.0021   -0.0041    0.0020 C.ar      1 <0>         0.0226
      7 C7         -1.2706   -0.7638    0.0101 C.2       1 <0>        -0.1890
      8 C8         -1.6067   -1.7834   -0.8305 C.2       1 <0>         0.0806
      9 N1         -2.8430   -2.2046   -0.4953 N.pl3     1 <0>        -0.3544
     10 N2         -3.2973   -1.4333    0.5811 N.2       1 <0>        -0.2713
     11 C9         -2.3595   -0.5675    0.8976 C.2       1 <0>         0.1246
     12 C10        -2.4294    0.4371    1.9856 C.ar      1 <0>         0.0300
     13 C11        -1.2876    0.7907    2.7112 C.ar      1 <0>        -0.1429
     14 C12        -1.3973    1.7300    3.7155 C.ar      1 <0>         0.1017
     15 N3         -2.5584    2.2914    3.9939 N.ar      1 <0>        -0.4795
     16 C13        -3.6592    1.9862    3.3336 C.ar      1 <0>         0.1001
     17 C14        -3.6377    1.0612    2.3104 C.ar      1 <0>        -0.1467
     18 C15        -3.5856   -3.2858   -1.1477 C.3       1 <0>         0.1606
     19 C16        -3.2616   -3.2993   -2.6448 C.3       1 <0>        -0.1682
     20 C17        -3.9798   -4.4798   -3.3038 C.3       1 <0>         0.0655
     21 O1         -3.5786   -5.6950   -2.6678 O.3       1 <0>        -0.3774
     22 C18        -3.8989   -5.7587   -1.2765 C.3       1 <0>         0.0640
     23 C19        -3.1774   -4.6296   -0.5361 C.3       1 <0>        -0.1676
     24 C20         3.8344   -0.4704   -0.0369 C.3       1 <0>        -0.0828
     25 C21         4.7229    0.7809   -0.0387 C.3       1 <0>        -0.1141
     26 C22         3.7677    1.9494   -0.0234 C.2       1 <0>         0.1732
     27 N4          4.0975    3.2008   -0.0199 N.2       1 <0>        -0.3252
     28 O2          5.4637    3.5729   -0.0309 O.3       1 <0>        -0.4062
     29 H1         -0.9593    1.9179    0.0260 H         1 <0>         0.1264
     30 H2          1.1467    3.1743    0.0078 H         1 <0>         0.1295
     31 H3          1.2348   -1.7622   -0.0190 H         1 <0>         0.1278
     32 H4         -0.9922   -2.1825   -1.6239 H         1 <0>         0.1796
     33 H5         -0.3341    0.3349    2.4889 H         1 <0>         0.1380
     34 H6         -0.5211    2.0093    4.2817 H         1 <0>         0.1591
     35 H7         -4.5887    2.4700    3.5950 H         1 <0>         0.1595
     36 H8         -4.5417    0.8195    1.7710 H         1 <0>         0.1379
     37 H9         -4.6552   -3.1307   -1.0062 H         1 <0>         0.1080
     38 H10        -3.5994   -2.3678   -3.0990 H         1 <0>         0.0879
     39 H11        -2.1856   -3.4041   -2.7836 H         1 <0>         0.0847
     40 H12        -5.0575   -4.3536   -3.1998 H         1 <0>         0.0587
     41 H13        -3.7188   -4.5197   -4.3613 H         1 <0>         0.1066
     42 H14        -4.9755   -5.6492   -1.1460 H         1 <0>         0.0583
     43 H15        -3.5795   -6.7198   -0.8737 H         1 <0>         0.1051
     44 H16        -2.0997   -4.7612   -0.6323 H         1 <0>         0.0812
     45 H17        -3.4550   -4.6494    0.5178 H         1 <0>         0.0861
     46 H18         4.0339   -1.0696    0.8514 H         1 <0>         0.0902
     47 H19         4.0169   -1.0601   -0.9353 H         1 <0>         0.0898
     48 H20         5.3539    0.7973    0.8500 H         1 <0>         0.0949
     49 H21         5.3368    0.8068   -0.9391 H         1 <0>         0.0945
     50 H22         5.6110    4.5286   -0.0272 H         1 <0>         0.4063
@<TRIPOS>BOND
     1    1    6 ar
     2    1    2 ar
     3    1   29 1
     4    2    3 ar
     5    2   30 1
     6    3   26 1
     7    3    4 ar
     8    4    5 ar
     9    4   24 1
    10    5    6 ar
    11    5   31 1
    12    6    7 1
    13    7   11 1
    14    7    8 2
    15    8    9 1
    16    8   32 1
    17    9   10 1
    18    9   18 1
    19   10   11 2
    20   11   12 1
    21   12   17 ar
    22   12   13 ar
    23   13   14 ar
    24   13   33 1
    25   14   15 ar
    26   14   34 1
    27   15   16 ar
    28   16   17 ar
    29   16   35 1
    30   17   36 1
    31   18   23 1
    32   18   19 1
    33   18   37 1
    34   19   20 1
    35   19   38 1
    36   19   39 1
    37   20   21 1
    38   20   40 1
    39   20   41 1
    40   21   22 1
    41   22   23 1
    42   22   42 1
    43   22   43 1
    44   23   44 1
    45   23   45 1
    46   24   25 1
    47   24   46 1
    48   24   47 1
    49   25   26 1
    50   25   48 1
    51   25   49 1
    52   26   27 2
    53   27   28 1
    54   28   50 1
@<TRIPOS>MOLECULE
CHEMBL524445
   55    59     0     0     0
SMALL
USER_CHARGES

@<TRIPOS>ATOM
      1 C1         -0.0168    1.3908    0.0097 C.ar      1 <0>        -0.1080
      2 C2          1.1640    2.0945    0.0022 C.ar      1 <0>        -0.0644
      3 C3          2.3915    1.4155   -0.0131 C.ar      1 <0>        -0.0591
      4 C4          2.4067    0.0213   -0.0207 C.ar      1 <0>        -0.0584
      5 C5          1.2202   -0.6823   -0.0128 C.ar      1 <0>        -0.1036
      6 C6          0.0021   -0.0041    0.0020 C.ar      1 <0>         0.0073
      7 C7         -1.2706   -0.7638    0.0101 C.2       1 <0>        -0.1724
      8 C8         -1.6067   -1.7834   -0.8305 C.2       1 <0>         0.0774
      9 N1         -2.8430   -2.2046   -0.4953 N.pl3     1 <0>        -0.3730
     10 N2         -3.2973   -1.4333    0.5811 N.2       1 <0>        -0.2772
     11 C9         -2.3595   -0.5675    0.8976 C.2       1 <0>         0.1407
     12 C10        -2.4294    0.4371    1.9856 C.ar      1 <0>         0.0195
     13 C11        -1.2876    0.7907    2.7112 C.ar      1 <0>        -0.1413
     14 C12        -1.3973    1.7300    3.7155 C.ar      1 <0>         0.1050
     15 N3         -2.5584    2.2914    3.9939 N.ar      1 <0>        -0.4741
     16 C13        -3.6592    1.9862    3.3336 C.ar      1 <0>         0.1022
     17 C14        -3.6377    1.0612    2.3104 C.ar      1 <0>        -0.1465
     18 C15        -3.5856   -3.2858   -1.1477 C.3       1 <0>         0.1455
     19 C16        -4.0072   -4.3190   -0.1009 C.3       1 <0>        -0.1277
     20 C17        -2.7618   -4.9878    0.4880 C.3       1 <0>        -0.1332
     21 C18        -3.1966   -6.0737    1.4764 C.3       1 <0>        -0.1458
     22 C19        -4.1074   -7.0729    0.7597 C.3       1 <0>        -0.0085
     23 N4         -5.2919   -6.3771    0.2426 N.4       1 <0>        -0.5031
     24 C20        -4.8879   -5.3832   -0.7591 C.3       1 <0>        -0.0028
     25 C21         3.8344   -0.4704   -0.0369 C.3       1 <0>        -0.0825
     26 C22         4.7229    0.7809   -0.0387 C.3       1 <0>        -0.1149
     27 C23         3.7677    1.9494   -0.0234 C.2       1 <0>         0.1664
     28 N5          4.0975    3.2008   -0.0199 N.2       1 <0>        -0.3197
     29 O1          5.4637    3.5729   -0.0309 O.3       1 <0>        -0.4021
     30 H1         -0.9593    1.9179    0.0260 H         1 <0>         0.1264
     31 H2          1.1467    3.1743    0.0078 H         1 <0>         0.1318
     32 H3          1.2348   -1.7622   -0.0190 H         1 <0>         0.1262
     33 H4         -0.9922   -2.1825   -1.6239 H         1 <0>         0.1836
     34 H5         -0.3341    0.3349    2.4889 H         1 <0>         0.1389
     35 H6         -0.5211    2.0093    4.2817 H         1 <0>         0.1615
     36 H7         -4.5887    2.4700    3.5950 H         1 <0>         0.1610
     37 H8         -4.5417    0.8195    1.7710 H         1 <0>         0.1369
     38 H9         -4.4723   -2.8769   -1.6322 H         1 <0>         0.0985
     39 H10        -2.9512   -3.7633   -1.8945 H         1 <0>         0.1095
     40 H11        -4.5659   -3.8247    0.6938 H         1 <0>         0.1119
     41 H12        -2.1762   -5.4379   -0.3137 H         1 <0>         0.0840
     42 H13        -2.1589   -4.2427    1.0071 H         1 <0>         0.0934
     43 H14        -2.3169   -6.5919    1.8580 H         1 <0>         0.1145
     44 H15        -3.7383   -5.6164    2.3044 H         1 <0>         0.0893
     45 H16        -3.5647   -7.5297   -0.0679 H         1 <0>         0.1318
     46 H17        -4.4187   -7.8475    1.4606 H         1 <0>         0.1354
     47 H18        -5.9154   -7.0470   -0.1822 H         1 <0>         0.4350
     48 H19        -5.7755   -4.9104   -1.1796 H         1 <0>         0.1381
     49 H20        -4.3286   -5.8760   -1.5543 H         1 <0>         0.1352
     50 H21         4.0339   -1.0696    0.8514 H         1 <0>         0.0904
     51 H22         4.0169   -1.0601   -0.9353 H         1 <0>         0.0901
     52 H23         5.3539    0.7973    0.8500 H         1 <0>         0.0963
     53 H24         5.3368    0.8068   -0.9391 H         1 <0>         0.0959
     54 H25         5.6110    4.5286   -0.0272 H         1 <0>         0.4089
     55 H26        -5.7668   -5.9134    1.0025 H         1 <0>         0.4299
@<TRIPOS>BOND
     1    1    6 ar
     2    1    2 ar
     3    1   30 1
     4    2    3 ar
     5    2   31 1
     6    3   27 1
     7    3    4 ar
     8    4    5 ar
     9    4   25 1
    10    5    6 ar
    11    5   32 1
    12    6    7 1
    13    7   11 1
    14    7    8 2
    15    8    9 1
    16    8   33 1
    17    9   10 1
    18    9   18 1
    19   10   11 2
    20   11   12 1
    21   12   17 ar
    22   12   13 ar
    23   13   14 ar
    24   13   34 1
    25   14   15 ar
    26   14   35 1
    27   15   16 ar
    28   16   17 ar
    29   16   36 1
    30   17   37 1
    31   18   19 1
    32   18   38 1
    33   18   39 1
    34   19   24 1
    35   19   20 1
    36   19   40 1
    37   20   21 1
    38   20   41 1
    39   20   42 1
    40   21   22 1
    41   21   43 1
    42   21   44 1
    43   22   23 1
    44   22   45 1
    45   22   46 1
    46   23   24 1
    47   23   47 1
    48   23   55 1
    49   24   48 1
    50   24   49 1
    51   25   26 1
    52   25   50 1
    53   25   51 1
    54   26   27 1
    55   26   52 1
    56   26   53 1
    57   27   28 2
    58   28   29 1
    59   29   54 1
@<TRIPOS>MOLECULE
CHEMBL524445__1
   55    59     0     0     0
SMALL
USER_CHARGES

@<TRIPOS>ATOM
      1 C1         -0.0168    1.3908    0.0097 C.ar      1 <0>        -0.1079
      2 C2          1.1640    2.0945    0.0022 C.ar      1 <0>        -0.0646
      3 C3          2.3915    1.4155   -0.0131 C.ar      1 <0>        -0.0590
      4 C4          2.4067    0.0213   -0.0207 C.ar      1 <0>        -0.0584
      5 C5          1.2202   -0.6823   -0.0128 C.ar      1 <0>        -0.1034
      6 C6          0.0021   -0.0041    0.0020 C.ar      1 <0>         0.0069
      7 C7         -1.2706   -0.7638    0.0101 C.2       1 <0>        -0.1722
      8 C8         -1.6067   -1.7834   -0.8305 C.2       1 <0>         0.0787
      9 N1         -2.8430   -2.2046   -0.4953 N.pl3     1 <0>        -0.3732
     10 N2         -3.2973   -1.4333    0.5811 N.2       1 <0>        -0.2778
     11 C9         -2.3595   -0.5675    0.8976 C.2       1 <0>         0.1408
     12 C10        -2.4294    0.4371    1.9856 C.ar      1 <0>         0.0191
     13 C11        -1.2876    0.7907    2.7112 C.ar      1 <0>        -0.1411
     14 C12        -1.3973    1.7300    3.7155 C.ar      1 <0>         0.1052
     15 N3         -2.5584    2.2914    3.9939 N.ar      1 <0>        -0.4739
     16 C13        -3.6592    1.9862    3.3336 C.ar      1 <0>         0.1021
     17 C14        -3.6377    1.0612    2.3104 C.ar      1 <0>        -0.1466
     18 C15        -3.5856   -3.2858   -1.1477 C.3       1 <0>         0.1442
     19 C16        -4.0072   -4.3190   -0.1009 C.3       1 <0>        -0.1244
     20 C17        -5.0017   -3.6824    0.8742 C.3       1 <0>        -0.1435
     21 C18        -5.4768   -4.7449    1.8695 C.3       1 <0>        -0.1462
     22 C19        -6.0882   -5.9186    1.1013 C.3       1 <0>        -0.0096
     23 N4         -5.0807   -6.5002    0.2062 N.4       1 <0>        -0.5024
     24 C20        -4.6731   -5.5084   -0.7962 C.3       1 <0>        -0.0033
     25 C21         3.8344   -0.4704   -0.0369 C.3       1 <0>        -0.0827
     26 C22         4.7229    0.7809   -0.0387 C.3       1 <0>        -0.1149
     27 C23         3.7677    1.9494   -0.0234 C.2       1 <0>         0.1664
     28 N5          4.0975    3.2008   -0.0199 N.2       1 <0>        -0.3197
     29 O1          5.4637    3.5729   -0.0309 O.3       1 <0>        -0.4020
     30 H1         -0.9593    1.9179    0.0260 H         1 <0>         0.1265
     31 H2          1.1467    3.1743    0.0078 H         1 <0>         0.1318
     32 H3          1.2348   -1.7622   -0.0190 H         1 <0>         0.1264
     33 H4         -0.9922   -2.1825   -1.6239 H         1 <0>         0.1843
     34 H5         -0.3341    0.3349    2.4889 H         1 <0>         0.1390
     35 H6         -0.5211    2.0093    4.2817 H         1 <0>         0.1615
     36 H7         -4.5887    2.4700    3.5950 H         1 <0>         0.1609
     37 H8         -4.5417    0.8195    1.7710 H         1 <0>         0.1370
     38 H9         -4.4723   -2.8769   -1.6322 H         1 <0>         0.0986
     39 H10        -2.9512   -3.7633   -1.8945 H         1 <0>         0.1100
     40 H11        -3.1290   -4.6621    0.4461 H         1 <0>         0.1010
     41 H12        -4.5145   -2.8700    1.4132 H         1 <0>         0.1222
     42 H13        -5.8564   -3.2933    0.3209 H         1 <0>         0.0820
     43 H14        -4.6296   -5.0970    2.4581 H         1 <0>         0.0859
     44 H15        -6.2269   -4.3134    2.5322 H         1 <0>         0.1140
     45 H16        -6.4277   -6.6768    1.8070 H         1 <0>         0.1341
     46 H17        -6.9354   -5.5655    0.5134 H         1 <0>         0.1313
     47 H18        -4.2759   -6.7822    0.7455 H         1 <0>         0.4285
     48 H19        -5.5505   -5.1640   -1.3437 H         1 <0>         0.1357
     49 H20        -3.9678   -5.9638   -1.4913 H         1 <0>         0.1363
     50 H21         4.0339   -1.0696    0.8514 H         1 <0>         0.0905
     51 H22         4.0169   -1.0601   -0.9353 H         1 <0>         0.0901
     52 H23         5.3539    0.7973    0.8500 H         1 <0>         0.0963
     53 H24         5.3368    0.8068   -0.9391 H         1 <0>         0.0959
     54 H25         5.6110    4.5286   -0.0272 H         1 <0>         0.4089
     55 H26        -5.4707   -7.3062   -0.2589 H         1 <0>         0.4344
@<TRIPOS>BOND
     1    1    6 ar
     2    1    2 ar
     3    1   30 1
     4    2    3 ar
     5    2   31 1
     6    3   27 1
     7    3    4 ar
     8    4    5 ar
     9    4   25 1
    10    5    6 ar
    11    5   32 1
    12    6    7 1
    13    7   11 1
    14    7    8 2
    15    8    9 1
    16    8   33 1
    17    9   10 1
    18    9   18 1
    19   10   11 2
    20   11   12 1
    21   12   17 ar
    22   12   13 ar
    23   13   14 ar
    24   13   34 1
    25   14   15 ar
    26   14   35 1
    27   15   16 ar
    28   16   17 ar
    29   16   36 1
    30   17   37 1
    31   18   19 1
    32   18   38 1
    33   18   39 1
    34   19   24 1
    35   19   20 1
    36   19   40 1
    37   20   21 1
    38   20   41 1
    39   20   42 1
    40   21   22 1
    41   21   43 1
    42   21   44 1
    43   22   23 1
    44   22   45 1
    45   22   46 1
    46   23   24 1
    47   23   47 1
    48   23   55 1
    49   24   48 1
    50   24   49 1
    51   25   26 1
    52   25   50 1
    53   25   51 1
    54   26   27 1
    55   26   52 1
    56   26   53 1
    57   27   28 2
    58   28   29 1
    59   29   54 1
@<TRIPOS>MOLECULE
CHEMBL497670
   55    59     0     0     0
SMALL
USER_CHARGES

@<TRIPOS>ATOM
      1 C1         -0.0168    1.3908    0.0097 C.ar      1 <0>        -0.1081
      2 C2          1.1640    2.0945    0.0022 C.ar      1 <0>        -0.0641
      3 C3          2.3915    1.4155   -0.0131 C.ar      1 <0>        -0.0597
      4 C4          2.4067    0.0213   -0.0207 C.ar      1 <0>        -0.0589
      5 C5          1.2202   -0.6823   -0.0128 C.ar      1 <0>        -0.1044
      6 C6          0.0021   -0.0041    0.0020 C.ar      1 <0>         0.0088
      7 C7         -1.2706   -0.7638    0.0101 C.2       1 <0>        -0.1744
      8 C8         -1.6067   -1.7834   -0.8305 C.2       1 <0>         0.0741
      9 N1         -2.8430   -2.2046   -0.4953 N.pl3     1 <0>        -0.3719
     10 N2         -3.2973   -1.4333    0.5811 N.2       1 <0>        -0.2751
     11 C9         -2.3595   -0.5675    0.8976 C.2       1 <0>         0.1369
     12 C10        -2.4294    0.4371    1.9856 C.ar      1 <0>         0.0203
     13 C11        -1.2876    0.7907    2.7112 C.ar      1 <0>        -0.1423
     14 C12        -1.3973    1.7300    3.7155 C.ar      1 <0>         0.1044
     15 N3         -2.5584    2.2914    3.9939 N.ar      1 <0>        -0.4745
     16 C13        -3.6592    1.9862    3.3336 C.ar      1 <0>         0.1024
     17 C14        -3.6377    1.0612    2.3104 C.ar      1 <0>        -0.1464
     18 C15        -3.5856   -3.2858   -1.1477 C.3       1 <0>         0.1404
     19 C16        -4.0072   -4.3190   -0.1009 C.3       1 <0>        -0.1166
     20 C17        -2.7624   -4.9913    0.4853 C.3       1 <0>        -0.1442
     21 C18        -3.1935   -6.0780    1.4726 C.3       1 <0>        -0.0051
     22 N4         -4.0108   -7.0795    0.7773 N.4       1 <0>        -0.5056
     23 C19        -5.2410   -6.4565    0.2745 C.3       1 <0>        -0.0051
     24 C20        -4.8887   -5.3844   -0.7590 C.3       1 <0>        -0.1424
     25 C21         3.8344   -0.4704   -0.0369 C.3       1 <0>        -0.0821
     26 C22         4.7229    0.7809   -0.0387 C.3       1 <0>        -0.1149
     27 C23         3.7677    1.9494   -0.0234 C.2       1 <0>         0.1663
     28 N5          4.0975    3.2008   -0.0199 N.2       1 <0>        -0.3196
     29 O1          5.4637    3.5729   -0.0309 O.3       1 <0>        -0.4022
     30 H1         -0.9593    1.9179    0.0260 H         1 <0>         0.1265
     31 H2          1.1467    3.1743    0.0078 H         1 <0>         0.1317
     32 H3          1.2348   -1.7622   -0.0190 H         1 <0>         0.1254
     33 H4         -0.9922   -2.1825   -1.6239 H         1 <0>         0.1823
     34 H5         -0.3341    0.3349    2.4889 H         1 <0>         0.1385
     35 H6         -0.5211    2.0093    4.2817 H         1 <0>         0.1610
     36 H7         -4.5887    2.4700    3.5950 H         1 <0>         0.1611
     37 H8         -4.5417    0.8195    1.7710 H         1 <0>         0.1373
     38 H9         -4.4723   -2.8769   -1.6322 H         1 <0>         0.0979
     39 H10        -2.9512   -3.7633   -1.8945 H         1 <0>         0.1048
     40 H11        -4.5649   -3.8250    0.6947 H         1 <0>         0.1070
     41 H12        -2.1788   -5.4404   -0.3183 H         1 <0>         0.0906
     42 H13        -2.1572   -4.2477    1.0038 H         1 <0>         0.1107
     43 H14        -2.3096   -6.5586    1.8920 H         1 <0>         0.1351
     44 H15        -3.7768   -5.6278    2.2758 H         1 <0>         0.1315
     45 H16        -3.4875   -7.4608    0.0034 H         1 <0>         0.4278
     46 H17        -5.8688   -7.2165   -0.1907 H         1 <0>         0.1372
     47 H18        -5.7806   -5.9982    1.1032 H         1 <0>         0.1322
     48 H19        -5.8034   -4.9218   -1.1298 H         1 <0>         0.1178
     49 H20        -4.3492   -5.8417   -1.5884 H         1 <0>         0.0933
     50 H21         4.0339   -1.0696    0.8514 H         1 <0>         0.0900
     51 H22         4.0169   -1.0601   -0.9353 H         1 <0>         0.0897
     52 H23         5.3539    0.7973    0.8500 H         1 <0>         0.0961
     53 H24         5.3368    0.8068   -0.9391 H         1 <0>         0.0958
     54 H25         5.6110    4.5286   -0.0272 H         1 <0>         0.4090
     55 H26        -4.2485   -7.8218    1.4181 H         1 <0>         0.4337
@<TRIPOS>BOND
     1    1    6 ar
     2    1    2 ar
     3    1   30 1
     4    2    3 ar
     5    2   31 1
     6    3   27 1
     7    3    4 ar
     8    4    5 ar
     9    4   25 1
    10    5    6 ar
    11    5   32 1
    12    6    7 1
    13    7   11 1
    14    7    8 2
    15    8    9 1
    16    8   33 1
    17    9   10 1
    18    9   18 1
    19   10   11 2
    20   11   12 1
    21   12   17 ar
    22   12   13 ar
    23   13   14 ar
    24   13   34 1
    25   14   15 ar
    26   14   35 1
    27   15   16 ar
    28   16   17 ar
    29   16   36 1
    30   17   37 1
    31   18   19 1
    32   18   38 1
    33   18   39 1
    34   19   24 1
    35   19   20 1
    36   19   40 1
    37   20   21 1
    38   20   41 1
    39   20   42 1
    40   21   22 1
    41   21   43 1
    42   21   44 1
    43   22   23 1
    44   22   45 1
    45   22   55 1
    46   23   24 1
    47   23   46 1
    48   23   47 1
    49   24   48 1
    50   24   49 1
    51   25   26 1
    52   25   50 1
    53   25   51 1
    54   26   27 1
    55   26   52 1
    56   26   53 1
    57   27   28 2
    58   28   29 1
    59   29   54 1
@<TRIPOS>MOLECULE
CHEMBL571278
   58    62     0     0     0
SMALL
USER_CHARGES

@<TRIPOS>ATOM
      1 C1         -2.1044    0.3394    0.7756 C.3       1 <0>        -0.1128
      2 C2         -0.8906   -0.3521    0.2103 C.ar      1 <0>        -0.0392
      3 C3         -0.9173   -0.8300   -1.0962 C.ar      1 <0>        -0.1156
      4 C4          0.1629   -1.4605   -1.6383 C.ar      1 <0>        -0.0828
      5 C5          1.3248   -1.6344   -0.8742 C.ar      1 <0>        -0.1329
      6 C6          1.3642   -1.1518    0.4572 C.ar      1 <0>         0.0174
      7 C7          0.2368   -0.4994    0.9922 C.ar      1 <0>         0.1432
      8 N1          0.2577   -0.0119    2.2993 N.pl3     1 <0>        -0.6505
      9 C8          0.4069    1.3475    2.5302 C.ar      1 <0>         0.4465
     10 C9          0.6005    1.8154    3.8386 C.ar      1 <0>        -0.1843
     11 C10         0.7483    3.1874    4.0480 C.ar      1 <0>        -0.0025
     12 C11         0.6971    4.0308    2.9499 C.ar      1 <0>        -0.2384
     13 C12         0.5031    3.4959    1.6903 C.ar      1 <0>         0.1724
     14 N2          0.3711    2.1951    1.5142 N.ar      1 <0>        -0.5355
     15 C13         0.6468    0.8698    4.9779 C.ar      1 <0>         0.2710
     16 C14         0.9908    1.3146    6.2534 C.ar      1 <0>        -0.2896
     17 C15         1.0188    0.3844    7.2902 C.ar      1 <0>         0.4457
     18 N3          0.7184   -0.8853    7.0271 N.ar      1 <0>        -0.5833
     19 C16         0.3979   -1.2670    5.8072 C.ar      1 <0>         0.3573
     20 N4          0.3544   -0.4199    4.8004 N.ar      1 <0>        -0.5813
     21 N5          1.3550    0.7753    8.5767 N.pl3     1 <0>        -0.7141
     22 C17         1.6843    2.1756    8.8543 C.3       1 <0>         0.0888
     23 C18         2.5436   -1.3397    1.2011 C.ar      1 <0>        -0.2025
     24 C19         3.5958   -1.9748    0.6155 C.ar      1 <0>         0.1275
     25 N6          3.5407   -2.4197   -0.6328 N.ar      1 <0>        -0.5422
     26 C20         2.4699   -2.2806   -1.3910 C.ar      1 <0>         0.4271
     27 N7          2.4684   -2.7663   -2.6889 N.pl3     1 <0>        -0.6523
     28 C21         3.5644   -3.4913   -3.1651 C.ar      1 <0>         0.1649
     29 C22         4.2966   -4.2943   -2.2978 C.ar      1 <0>        -0.1047
     30 C23         5.3810   -5.0129   -2.7640 C.ar      1 <0>        -0.0985
     31 C24         5.7447   -4.9377   -4.0935 C.ar      1 <0>        -0.1151
     32 C25         5.0163   -4.1345   -4.9721 C.ar      1 <0>         0.0281
     33 C26         3.9183   -3.4141   -4.5034 C.ar      1 <0>        -0.1309
     34 C27         5.3917   -4.0550   -6.3517 C.1       1 <0>        -0.1503
     35 C28         5.6996   -3.9898   -7.4827 C.1       1 <0>        -0.1741
     36 H1         -2.0129    1.4150    0.6248 H         1 <0>         0.0782
     37 H2         -2.9985   -0.0239    0.2689 H         1 <0>         0.0662
     38 H3         -2.1796    0.1272    1.8421 H         1 <0>         0.0653
     39 H4         -1.8093   -0.6994   -1.6909 H         1 <0>         0.1296
     40 H5          0.1234   -1.8254   -2.6540 H         1 <0>         0.1247
     41 H6          0.1679   -0.6238    3.0466 H         1 <0>         0.4345
     42 H7          0.8986    3.5821    5.0420 H         1 <0>         0.1364
     43 H8          0.8075    5.0975    3.0771 H         1 <0>         0.1378
     44 H9          0.4629    4.1539    0.8348 H         1 <0>         0.1589
     45 H10         1.2295    2.3525    6.4331 H         1 <0>         0.1432
     46 H11         0.1600   -2.3053    5.6288 H         1 <0>         0.1990
     47 H12         1.3723    0.1218    9.2933 H         1 <0>         0.4115
     48 H13         1.9205    2.2904    9.9122 H         1 <0>         0.0856
     49 H14         2.5455    2.4719    8.2555 H         1 <0>         0.0614
     50 H15         0.8319    2.8062    8.6018 H         1 <0>         0.0612
     51 H16         2.6132   -0.9859    2.2191 H         1 <0>         0.1296
     52 H17         4.5023   -2.1204    1.1842 H         1 <0>         0.1526
     53 H18         1.7067   -2.6031   -3.2670 H         1 <0>         0.4181
     54 H19         4.0171   -4.3565   -1.2565 H         1 <0>         0.1422
     55 H20         5.9461   -5.6351   -2.0858 H         1 <0>         0.1303
     56 H21         6.5933   -5.5003   -4.4538 H         1 <0>         0.1259
     57 H22         3.3479   -2.7947   -5.1798 H         1 <0>         0.1267
     58 H23         5.9749   -3.9315   -8.4943 H         1 <0>         0.2247
@<TRIPOS>BOND
     1    1    2 1
     2    1   36 1
     3    1   37 1
     4    1   38 1
     5    2    7 ar
     6    2    3 ar
     7    3    4 ar
     8    3   39 1
     9    4    5 ar
    10    4   40 1
    11    5   26 ar
    12    5    6 ar
    13    6    7 ar
    14    6   23 ar
    15    7    8 1
    16    8    9 1
    17    8   41 1
    18    9   14 ar
    19    9   10 ar
    20   10   11 ar
    21   10   15 1
    22   11   12 ar
    23   11   42 1
    24   12   13 ar
    25   12   43 1
    26   13   14 ar
    27   13   44 1
    28   15   20 ar
    29   15   16 ar
    30   16   17 ar
    31   16   45 1
    32   17   18 ar
    33   17   21 1
    34   18   19 ar
    35   19   20 ar
    36   19   46 1
    37   21   22 1
    38   21   47 1
    39   22   48 1
    40   22   49 1
    41   22   50 1
    42   23   24 ar
    43   23   51 1
    44   24   25 ar
    45   24   52 1
    46   25   26 ar
    47   26   27 1
    48   27   28 1
    49   27   53 1
    50   28   33 ar
    51   28   29 ar
    52   29   30 ar
    53   29   54 1
    54   30   31 ar
    55   30   55 1
    56   31   32 ar
    57   31   56 1
    58   32   33 ar
    59   32   34 1
    60   33   57 1
    61   34   35 3
    62   35   58 1
@<TRIPOS>MOLECULE
CHEMBL571278__1
   59    63     0     0     0
SMALL
USER_CHARGES

@<TRIPOS>ATOM
      1 C1         -2.1700   -0.6537    0.8791 C.3       1 <0>        -0.1280
      2 C2         -0.9483   -1.3855    0.3860 C.ar      1 <0>         0.0020
      3 C3         -0.7960   -1.6308   -0.9750 C.ar      1 <0>        -0.0867
      4 C4          0.2965   -2.2903   -1.4543 C.ar      1 <0>        -0.0701
      5 C5          1.2885   -2.7320   -0.5685 C.ar      1 <0>        -0.1232
      6 C6          1.1449   -2.4878    0.8195 C.ar      1 <0>         0.0252
      7 C7          0.0094   -1.7998    1.2889 C.ar      1 <0>         0.1638
      8 N1         -0.1478   -1.5445    2.6515 N.pl3     1 <0>        -0.6633
      9 C8          0.0821   -0.2705    3.1494 C.ar      1 <0>         0.4337
     10 C9          0.0589   -0.0487    4.5345 C.ar      1 <0>        -0.1684
     11 C10         0.2929    1.2412    5.0137 C.ar      1 <0>        -0.0032
     12 C11         0.5388    2.2502    4.0966 C.ar      1 <0>        -0.2222
     13 C12         0.5456    1.9550    2.7464 C.ar      1 <0>         0.1687
     14 N2          0.3273    0.7274    2.3152 N.ar      1 <0>        -0.5402
     15 C13        -0.2096   -1.1637    5.4720 C.ar      1 <0>         0.2634
     16 C14        -0.0731   -0.9808    6.8471 C.ar      1 <0>        -0.2854
     17 C15        -0.3383   -2.0619    7.6850 C.ar      1 <0>         0.4495
     18 N3         -0.7094   -3.2210    7.1460 N.ar      1 <0>        -0.5792
     19 C16        -0.8272   -3.3543    5.8404 C.ar      1 <0>         0.3577
     20 N4         -0.5913   -2.3573    5.0136 N.ar      1 <0>        -0.5891
     21 N5         -0.2169   -1.9325    9.0596 N.pl3     1 <0>        -0.7092
     22 C17         0.1928   -0.6519    9.6414 C.3       1 <0>         0.0858
     23 C18         2.1563   -2.9420    1.6858 C.ar      1 <0>        -0.1118
     24 C19         3.2283   -3.5953    1.1591 C.ar      1 <0>         0.0767
     25 N6          3.3459   -3.8146   -0.1437 N.ar      1 <0>        -0.5127
     26 C20         2.4388   -3.4191   -1.0164 C.ar      1 <0>         0.4983
     27 N7          2.6137   -3.6767   -2.3669 N.pl3     1 <0>        -0.6258
     28 C21         3.6889   -4.4603   -2.7954 C.ar      1 <0>         0.0974
     29 C22         4.0322   -5.6118   -2.0960 C.ar      1 <0>        -0.1644
     30 C23         5.0943   -6.3897   -2.5158 C.ar      1 <0>        -0.0758
     31 C24         5.8218   -6.0283   -3.6320 C.ar      1 <0>        -0.0871
     32 C25         5.4852   -4.8742   -4.3409 C.ar      1 <0>         0.0645
     33 C26         4.4096   -4.0924   -3.9212 C.ar      1 <0>        -0.0974
     34 C27         6.2384   -4.4974   -5.4991 C.1       1 <0>        -0.1932
     35 C28         6.8559   -4.1884   -6.4485 C.1       1 <0>        -0.1139
     36 H1         -1.9585    0.4145    0.9281 H         1 <0>         0.0928
     37 H2         -2.9995   -0.8288    0.1940 H         1 <0>         0.0800
     38 H3         -2.4355   -1.0174    1.8717 H         1 <0>         0.0782
     39 H4         -1.5565   -1.2932   -1.6635 H         1 <0>         0.1519
     40 H5          0.3971   -2.4722   -2.5142 H         1 <0>         0.1422
     41 H6         -0.4179   -2.2580    3.2506 H         1 <0>         0.4391
     42 H7          0.2821    1.4478    6.0737 H         1 <0>         0.1416
     43 H8          0.7233    3.2594    4.4340 H         1 <0>         0.1434
     44 H9          0.7370    2.7420    2.0320 H         1 <0>         0.1633
     45 H10         0.2304   -0.0268    7.2522 H         1 <0>         0.1453
     46 H11        -1.1301   -4.3091    5.4366 H         1 <0>         0.1997
     47 H12        -0.4033   -2.6898    9.6364 H         1 <0>         0.4141
     48 H13        -0.5274    0.1189    9.3669 H         1 <0>         0.0635
     49 H14         0.2323   -0.7421   10.7270 H         1 <0>         0.0892
     50 H15         1.1782   -0.3797    9.2633 H         1 <0>         0.0630
     51 H16         2.0836   -2.7749    2.7503 H         1 <0>         0.1714
     52 H17         4.0061   -3.9450    1.8217 H         1 <0>         0.1988
     53 H18         1.9900   -3.3132   -3.0147 H         1 <0>         0.4439
     54 H19         3.4671   -5.8992   -1.2216 H         1 <0>         0.1325
     55 H20         5.3565   -7.2832   -1.9687 H         1 <0>         0.1491
     56 H21         6.6517   -6.6385   -3.9565 H         1 <0>         0.1451
     57 H22         4.1416   -3.2009   -4.4687 H         1 <0>         0.1443
     58 H23         7.4082   -3.9121   -7.2977 H         1 <0>         0.2322
     59 H24         4.1300   -4.2848   -0.4678 H         1 <0>         0.4388
@<TRIPOS>BOND
     1    1    2 1
     2    1   36 1
     3    1   37 1
     4    1   38 1
     5    2    7 ar
     6    2    3 ar
     7    3    4 ar
     8    3   39 1
     9    4    5 ar
    10    4   40 1
    11    5   26 ar
    12    5    6 ar
    13    6    7 ar
    14    6   23 ar
    15    7    8 1
    16    8    9 1
    17    8   41 1
    18    9   14 ar
    19    9   10 ar
    20   10   11 ar
    21   10   15 1
    22   11   12 ar
    23   11   42 1
    24   12   13 ar
    25   12   43 1
    26   13   14 ar
    27   13   44 1
    28   15   20 ar
    29   15   16 ar
    30   16   17 ar
    31   16   45 1
    32   17   18 ar
    33   17   21 1
    34   18   19 ar
    35   19   20 ar
    36   19   46 1
    37   21   22 1
    38   21   47 1
    39   22   48 1
    40   22   49 1
    41   22   50 1
    42   23   24 ar
    43   23   51 1
    44   24   25 ar
    45   24   52 1
    46   25   26 ar
    47   25   59 1
    48   26   27 1
    49   27   28 1
    50   27   53 1
    51   28   33 ar
    52   28   29 ar
    53   29   30 ar
    54   29   54 1
    55   30   31 ar
    56   30   55 1
    57   31   32 ar
    58   31   56 1
    59   32   33 ar
    60   32   34 1
    61   33   57 1
    62   34   35 3
    63   35   58 1
@<TRIPOS>MOLECULE
CHEMBL199948
   38    40     0     0     0
SMALL
USER_CHARGES

@<TRIPOS>ATOM
      1 C1          1.8885    1.4187   -0.1127 C.3       1 <0>        -0.1721
      2 C2          1.7632   -0.0829   -0.1318 C.2       1 <0>         0.5113
      3 O1          2.3192   -0.7487    0.7160 O.2       1 <0>        -0.5239
      4 N1          1.0334   -0.6861   -1.0910 N.am      1 <0>        -0.6760
      5 C3          0.9982   -2.0829   -1.1689 C.ar      1 <0>         0.1401
      6 C4          1.0193   -2.8447   -0.0068 C.ar      1 <0>        -0.0985
      7 C5          0.9841   -4.2241   -0.0796 C.ar      1 <0>        -0.1043
      8 C6          0.9279   -4.8536   -1.3073 C.ar      1 <0>        -0.0846
      9 C7          0.9068   -4.0976   -2.4781 C.ar      1 <0>        -0.0413
     10 C8          0.9364   -2.7070   -2.4054 C.ar      1 <0>        -0.1178
     11 C9          0.8474   -4.7722   -3.7979 C.ar      1 <0>         0.1775
     12 C10         0.8321   -4.0160   -4.9681 C.ar      1 <0>         0.0146
     13 N2          0.7792   -4.6168   -6.1432 N.ar      1 <0>        -0.3953
     14 C11         0.7405   -5.9345   -6.2139 C.ar      1 <0>         0.0131
     15 C12         0.7550   -6.6978   -5.0484 C.ar      1 <0>         0.3423
     16 N3          0.8141   -6.1001   -3.8665 N.ar      1 <0>        -0.4808
     17 N4          0.7137   -8.0863   -5.1250 N.pl3     1 <0>        -0.6438
     18 C13         0.6119   -8.8454   -3.9613 C.ar      1 <0>         0.2380
     19 C14        -0.0832   -8.3644   -2.8524 C.ar      1 <0>        -0.1613
     20 C15        -0.1616   -9.1473   -1.7181 C.ar      1 <0>         0.2137
     21 N5          0.4116  -10.3367   -1.6756 N.ar      1 <0>        -0.4892
     22 C16         1.0785  -10.8268   -2.7052 C.ar      1 <0>         0.2171
     23 C17         1.1976  -10.1081   -3.8778 C.ar      1 <0>        -0.1916
     24 Cl1         1.8092  -12.3969   -2.5843 Cl        1 <0>        -0.0108
     25 Cl2        -1.0238   -8.5612   -0.3300 Cl        1 <0>        -0.0101
     26 H1          2.7535    1.7187   -0.7043 H         1 <0>         0.0994
     27 H2          0.9876    1.8639   -0.5349 H         1 <0>         0.0840
     28 H3          2.0151    1.7597    0.9148 H         1 <0>         0.0988
     29 H4          0.5326   -0.1521   -1.7272 H         1 <0>         0.4133
     30 H5          1.0636   -2.3572    0.9559 H         1 <0>         0.1423
     31 H6          1.0011   -4.8117    0.8264 H         1 <0>         0.1331
     32 H7          0.9006   -5.9319   -1.3603 H         1 <0>         0.1340
     33 H8          0.9158   -2.1168   -3.3096 H         1 <0>         0.1332
     34 H9          0.8633   -2.9378   -4.9143 H         1 <0>         0.1728
     35 H10         0.6973   -6.4217   -7.1768 H         1 <0>         0.1727
     36 H11         0.7558   -8.5259   -5.9886 H         1 <0>         0.4313
     37 H12        -0.5535   -7.3925   -2.8803 H         1 <0>         0.1629
     38 H13         1.7407  -10.5163   -4.7173 H         1 <0>         0.1561
@<TRIPOS>BOND
     1    1    2 1
     2    1   26 1
     3    1   27 1
     4    1   28 1
     5    2    3 2
     6    2    4 am
     7    4    5 1
     8    4   29 1
     9    5   10 ar
    10    5    6 ar
    11    6    7 ar
    12    6   30 1
    13    7    8 ar
    14    7   31 1
    15    8    9 ar
    16    8   32 1
    17    9   10 ar
    18    9   11 1
    19   10   33 1
    20   11   16 ar
    21   11   12 ar
    22   12   13 ar
    23   12   34 1
    24   13   14 ar
    25   14   15 ar
    26   14   35 1
    27   15   16 ar
    28   15   17 1
    29   17   18 1
    30   17   36 1
    31   18   23 ar
    32   18   19 ar
    33   19   20 ar
    34   19   37 1
    35   20   21 ar
    36   20   25 1
    37   21   22 ar
    38   22   23 ar
    39   22   24 1
    40   23   38 1
@<TRIPOS>MOLECULE
CHEMBL199811
   43    46     0     0     0
SMALL
USER_CHARGES

@<TRIPOS>ATOM
      1 C1          2.0117    1.4027   -0.1112 C.3       1 <0>        -0.1723
      2 C2          1.8716   -0.0976   -0.1311 C.2       1 <0>         0.5116
      3 O1          2.4249   -0.7696    0.7135 O.2       1 <0>        -0.5243
      4 N1          1.1314   -0.6927   -1.0873 N.am      1 <0>        -0.6761
      5 C3          1.0817   -2.0890   -1.1661 C.ar      1 <0>         0.1405
      6 C4          1.1021   -2.8519   -0.0047 C.ar      1 <0>        -0.1007
      7 C5          1.0528   -4.2308   -0.0783 C.ar      1 <0>        -0.1058
      8 C6          0.9829   -4.8587   -1.3061 C.ar      1 <0>        -0.0875
      9 C7          0.9624   -4.1017   -2.4762 C.ar      1 <0>        -0.0383
     10 C8          1.0064   -2.7115   -2.4026 C.ar      1 <0>        -0.1187
     11 C9          0.8884   -4.7746   -3.7961 C.ar      1 <0>         0.1757
     12 C10         0.8738   -4.0173   -4.9656 C.ar      1 <0>         0.0065
     13 N2          0.8078   -4.6165   -6.1409 N.ar      1 <0>        -0.3956
     14 C11         0.7560   -5.9337   -6.2125 C.ar      1 <0>         0.0064
     15 C12         0.7707   -6.6983   -5.0476 C.ar      1 <0>         0.3496
     16 N3          0.8414   -6.1020   -3.8655 N.ar      1 <0>        -0.4837
     17 N4          0.7156   -8.0858   -5.1250 N.pl3     1 <0>        -0.6516
     18 C13         0.6143   -8.8475   -3.9573 C.ar      1 <0>         0.1604
     19 C14        -0.0830   -8.3493   -2.8624 C.ar      1 <0>        -0.0816
     20 C15        -0.1865   -9.0988   -1.7041 C.ar      1 <0>        -0.0751
     21 C16         0.4012  -10.3409   -1.6326 C.ar      1 <0>        -0.1219
     22 C17         1.1054  -10.8540   -2.7262 C.ar      1 <0>        -0.1719
     23 C18         1.2047  -10.1008   -3.8954 C.ar      1 <0>        -0.0674
     24 C19         1.6108  -12.1863   -2.3465 C.2       1 <0>         0.5233
     25 O2          2.2673  -12.9132   -3.0649 O.2       1 <0>        -0.4476
     26 O3          1.2386  -12.4775   -1.0891 O.3       1 <0>        -0.3132
     27 C20         0.4789  -11.3908   -0.5533 C.3       1 <0>         0.0918
     28 H1          2.8768    1.6948   -0.7065 H         1 <0>         0.0995
     29 H2          1.1131    1.8571   -0.5287 H         1 <0>         0.0840
     30 H3          2.1464    1.7415    0.9160 H         1 <0>         0.0988
     31 H4          0.6331   -0.1532   -1.7209 H         1 <0>         0.4134
     32 H5          1.1571   -2.3656    0.9581 H         1 <0>         0.1420
     33 H6          1.0693   -4.8193    0.8271 H         1 <0>         0.1325
     34 H7          0.9445   -5.9367   -1.3598 H         1 <0>         0.1355
     35 H8          0.9862   -2.1204   -3.3062 H         1 <0>         0.1331
     36 H9          0.9160   -2.9395   -4.9111 H         1 <0>         0.1703
     37 H10         0.7019   -6.4196   -7.1755 H         1 <0>         0.1706
     38 H11         0.7475   -8.5249   -5.9893 H         1 <0>         0.4264
     39 H12        -0.5448   -7.3745   -2.9161 H         1 <0>         0.1479
     40 H13        -0.7285   -8.7086   -0.8554 H         1 <0>         0.1402
     41 H14         1.7427  -10.4898   -4.7473 H         1 <0>         0.1395
     42 H15         0.9782  -10.9849    0.3265 H         1 <0>         0.1170
     43 H16        -0.5230  -11.7302   -0.2905 H         1 <0>         0.1169
@<TRIPOS>BOND
     1    1    2 1
     2    1   28 1
     3    1   29 1
     4    1   30 1
     5    2    3 2
     6    2    4 am
     7    4    5 1
     8    4   31 1
     9    5   10 ar
    10    5    6 ar
    11    6    7 ar
    12    6   32 1
    13    7    8 ar
    14    7   33 1
    15    8    9 ar
    16    8   34 1
    17    9   10 ar
    18    9   11 1
    19   10   35 1
    20   11   16 ar
    21   11   12 ar
    22   12   13 ar
    23   12   36 1
    24   13   14 ar
    25   14   15 ar
    26   14   37 1
    27   15   16 ar
    28   15   17 1
    29   17   18 1
    30   17   38 1
    31   18   23 ar
    32   18   19 ar
    33   19   20 ar
    34   19   39 1
    35   20   21 ar
    36   20   40 1
    37   21   27 1
    38   21   22 ar
    39   22   23 ar
    40   22   24 1
    41   23   41 1
    42   24   25 2
    43   24   26 1
    44   26   27 1
    45   27   42 1
    46   27   43 1
@<TRIPOS>MOLECULE
CHEMBL515322
   62    66     0     0     0
SMALL
USER_CHARGES

@<TRIPOS>ATOM
      1 C1          3.4899   -0.3686   -0.6395 C.3       1 <0>        -0.0475
      2 N1          2.5967   -1.5312   -0.5475 N.4       1 <0>        -0.3862
      3 C2          3.1698   -2.5168    0.3790 C.3       1 <0>        -0.0540
      4 C3          1.2821   -1.1009   -0.0530 C.3       1 <0>         0.0446
      5 C4          0.3302   -2.2690   -0.0747 C.ar      1 <0>        -0.1410
      6 C5         -0.4282   -2.5212   -1.2035 C.ar      1 <0>        -0.1062
      7 C6         -1.3024   -3.5921   -1.2278 C.ar      1 <0>        -0.0893
      8 C7         -1.4214   -4.4136   -0.1238 C.ar      1 <0>        -0.0891
      9 C8         -0.6613   -4.1632    1.0113 C.ar      1 <0>         0.1602
     10 C9          0.2203   -3.0897    1.0303 C.ar      1 <0>        -0.1228
     11 N2         -0.7796   -4.9925    2.1306 N.am      1 <0>        -0.6537
     12 C10        -1.0162   -6.3097    1.9714 C.2       1 <0>         0.6179
     13 O1         -1.0353   -6.7936    0.8558 O.2       1 <0>        -0.5102
     14 C11        -1.2518   -7.1640    3.1496 C.2       1 <0>         0.1475
     15 N3         -1.4961   -8.5085    3.1173 N.pl3     1 <0>        -0.5098
     16 H1         -1.5448   -9.0658    2.3249 H         1 <0>         0.4370
     17 C12        -1.6586   -8.9213    4.4105 C.2       1 <0>         0.0765
     18 C13        -1.5047   -7.7901    5.2069 C.2       1 <0>         0.0790
     19 N4         -1.2549   -6.7551    4.3991 N.2       1 <0>        -0.4211
     20 C14        -1.5959   -7.7429    6.6841 C.ar      1 <0>         0.0068
     21 C15        -0.9962   -8.7411    7.4541 C.ar      1 <0>        -0.1028
     22 C16        -1.0821   -8.6964    8.8248 C.ar      1 <0>        -0.0668
     23 C17        -1.7708   -7.6496    9.4566 C.ar      1 <0>        -0.0529
     24 C18        -2.3682   -6.6541    8.6850 C.ar      1 <0>        -0.0611
     25 C19        -2.2763   -6.6982    7.3090 C.ar      1 <0>        -0.0809
     26 C20        -3.0417   -5.6480    9.5876 C.3       1 <0>        -0.0823
     27 C21        -2.7989   -6.1262   11.0255 C.3       1 <0>        -0.1145
     28 C22        -1.9915   -7.3947   10.8938 C.2       1 <0>         0.1669
     29 N5         -1.5670   -8.1303   11.8702 N.2       1 <0>        -0.3193
     30 O2         -1.8532   -7.7652   13.2081 O.3       1 <0>        -0.4020
     31 C23        -1.9413  -10.2950    4.8711 C.ar      1 <0>         0.0062
     32 C24        -2.9501  -10.5465    5.8102 C.ar      1 <0>        -0.1355
     33 C25        -3.1799  -11.8456    6.2123 C.ar      1 <0>         0.1111
     34 N6         -2.4654  -12.8423    5.7254 N.ar      1 <0>        -0.4714
     35 C26        -1.5063  -12.6502    4.8399 C.ar      1 <0>         0.1095
     36 C27        -1.2121  -11.3846    4.3773 C.ar      1 <0>        -0.1599
     37 H2          4.4654   -0.6879   -1.0064 H         1 <0>         0.1247
     38 H3          3.0647    0.3627   -1.3269 H         1 <0>         0.1242
     39 H4          3.6024    0.0821    0.3465 H         1 <0>         0.1226
     40 H5          3.2822   -2.0661    1.3650 H         1 <0>         0.1224
     41 H6          2.5070   -3.3795    0.4473 H         1 <0>         0.1232
     42 H7          4.1452   -2.8361    0.0121 H         1 <0>         0.1243
     43 H8          1.3810   -0.7317    0.9678 H         1 <0>         0.1366
     44 H9          0.8963   -0.3059   -0.6911 H         1 <0>         0.1395
     45 H10        -0.3375   -1.8799   -2.0678 H         1 <0>         0.1348
     46 H11        -1.8931   -3.7862   -2.1108 H         1 <0>         0.1418
     47 H12        -2.1049   -5.2495   -0.1431 H         1 <0>         0.1452
     48 H13         0.8158   -2.8946    1.9100 H         1 <0>         0.1371
     49 H14        -0.6914   -4.6198    3.0218 H         1 <0>         0.4288
     50 H15        -0.4650   -9.5488    6.9725 H         1 <0>         0.1275
     51 H16        -0.6179   -9.4702    9.4182 H         1 <0>         0.1336
     52 H17        -2.7365   -5.9234    6.7138 H         1 <0>         0.1325
     53 H18        -2.6017   -4.6614    9.4421 H         1 <0>         0.0909
     54 H19        -4.1112   -5.6157    9.3796 H         1 <0>         0.0918
     55 H20        -2.2367   -5.3769   11.5828 H         1 <0>         0.0960
     56 H21        -3.7481   -6.3324   11.5202 H         1 <0>         0.0968
     57 H22        -1.4949   -8.3751   13.8674 H         1 <0>         0.4086
     58 H23        -3.5386   -9.7355    6.2132 H         1 <0>         0.1422
     59 H24        -3.9551  -12.0498    6.9360 H         1 <0>         0.1654
     60 H25        -0.9468  -13.4962    4.4690 H         1 <0>         0.1637
     61 H26        -0.4291  -11.2354    3.6487 H         1 <0>         0.1357
     62 H27         2.4926   -1.9485   -1.4602 H         1 <0>         0.4271
@<TRIPOS>BOND
     1    1    2 1
     2    1   37 1
     3    1   38 1
     4    1   39 1
     5    2    3 1
     6    2    4 1
     7    2   62 1
     8    3   40 1
     9    3   41 1
    10    3   42 1
    11    4    5 1
    12    4   43 1
    13    4   44 1
    14    5   10 ar
    15    5    6 ar
    16    6    7 ar
    17    6   45 1
    18    7    8 ar
    19    7   46 1
    20    8    9 ar
    21    8   47 1
    22    9   10 ar
    23    9   11 1
    24   10   48 1
    25   11   12 am
    26   11   49 1
    27   12   13 2
    28   12   14 1
    29   14   19 2
    30   14   15 1
    31   15   16 1
    32   15   17 1
    33   17   18 2
    34   17   31 1
    35   18   19 1
    36   18   20 1
    37   20   25 ar
    38   20   21 ar
    39   21   22 ar
    40   21   50 1
    41   22   23 ar
    42   22   51 1
    43   23   28 1
    44   23   24 ar
    45   24   25 ar
    46   24   26 1
    47   25   52 1
    48   26   27 1
    49   26   53 1
    50   26   54 1
    51   27   28 1
    52   27   55 1
    53   27   56 1
    54   28   29 2
    55   29   30 1
    56   30   57 1
    57   31   36 ar
    58   31   32 ar
    59   32   33 ar
    60   32   58 1
    61   33   34 ar
    62   33   59 1
    63   34   35 ar
    64   35   36 ar
    65   35   60 1
    66   36   61 1
@<TRIPOS>MOLECULE
CHEMBL515322__1
   62    66     0     0     0
SMALL
USER_CHARGES

@<TRIPOS>ATOM
      1 C1          2.2121    0.0691   -1.0885 C.3       1 <0>        -0.0476
      2 N1          1.4882   -1.1977   -0.9180 N.4       1 <0>        -0.3862
      3 C2          2.2382   -2.0712   -0.0056 C.3       1 <0>        -0.0541
      4 C3          0.1577   -0.9296   -0.3561 C.3       1 <0>         0.0447
      5 C4         -0.6299   -2.2130   -0.2956 C.ar      1 <0>        -0.1407
      6 C5         -1.4098   -2.5963   -1.3716 C.ar      1 <0>        -0.1068
      7 C6         -2.1340   -3.7730   -1.3202 C.ar      1 <0>        -0.0891
      8 C7         -2.0804   -4.5700   -0.1934 C.ar      1 <0>        -0.0901
      9 C8         -1.2979   -4.1883    0.8887 C.ar      1 <0>         0.1607
     10 C9         -0.5678   -3.0077    0.8319 C.ar      1 <0>        -0.1236
     11 N2         -1.2414   -4.9927    2.0308 N.am      1 <0>        -0.6537
     12 C10        -1.3276   -6.3328    1.9161 C.2       1 <0>         0.6181
     13 O1         -1.3578   -6.8482    0.8148 O.2       1 <0>        -0.5101
     14 C11        -1.3851   -7.1735    3.1249 C.2       1 <0>         0.1445
     15 N3         -1.3605   -6.7313    4.3627 N.2       1 <0>        -0.4188
     16 H1         -1.5177   -9.1203    2.3629 H         1 <0>         0.4375
     17 C12        -1.4300   -7.7639    5.2074 C.2       1 <0>         0.0658
     18 C13        -1.5031   -8.9290    4.4480 C.2       1 <0>         0.0924
     19 N4         -1.4787   -8.5384    3.1380 N.pl3     1 <0>        -0.5113
     20 C14        -1.5934  -10.3103    4.9562 C.ar      1 <0>        -0.0239
     21 C15        -0.7697  -10.7261    6.0073 C.ar      1 <0>        -0.0860
     22 C16        -0.8555  -12.0040    6.4758 C.ar      1 <0>        -0.0663
     23 C17        -1.7678  -12.9072    5.9076 C.ar      1 <0>        -0.0412
     24 C18        -2.5882  -12.4907    4.8597 C.ar      1 <0>        -0.0581
     25 C19        -2.5061  -11.2057    4.3930 C.ar      1 <0>        -0.0920
     26 C20        -3.4745  -13.6332    4.4243 C.3       1 <0>        -0.0842
     27 C21        -3.1170  -14.8247    5.3228 C.3       1 <0>        -0.1143
     28 C22        -2.0339  -14.3195    6.2447 C.2       1 <0>         0.1629
     29 N5         -1.4414  -15.0050    7.1687 N.2       1 <0>        -0.3142
     30 O2         -1.7978  -16.3583    7.3849 O.3       1 <0>        -0.3988
     31 C23        -1.4296   -7.6839    6.6866 C.ar      1 <0>         0.0320
     32 C24        -2.1750   -8.5842    7.4553 C.ar      1 <0>        -0.1535
     33 C25        -2.1457   -8.4742    8.8298 C.ar      1 <0>         0.1062
     34 N6         -1.4284   -7.5365    9.4192 N.ar      1 <0>        -0.4786
     35 C26        -0.7116   -6.6678    8.7317 C.ar      1 <0>         0.1022
     36 C27        -0.6792   -6.7096    7.3535 C.ar      1 <0>        -0.1467
     37 H2          3.1994   -0.1298   -1.5055 H         1 <0>         0.1247
     38 H3          1.6557    0.7173   -1.7655 H         1 <0>         0.1242
     39 H4          2.3184    0.5599   -0.1211 H         1 <0>         0.1226
     40 H5          1.7010   -3.0112    0.1209 H         1 <0>         0.1232
     41 H6          3.2254   -2.2702   -0.4225 H         1 <0>         0.1243
     42 H7          2.3445   -1.5805    0.9618 H         1 <0>         0.1224
     43 H8          0.2633   -0.5204    0.6486 H         1 <0>         0.1366
     44 H9         -0.3655   -0.2117   -0.9877 H         1 <0>         0.1395
     45 H10        -1.4534   -1.9749   -2.2539 H         1 <0>         0.1347
     46 H11        -2.7425   -4.0690   -2.1619 H         1 <0>         0.1417
     47 H12        -2.6466   -5.4888   -0.1537 H         1 <0>         0.1459
     48 H13         0.0449   -2.7101    1.6700 H         1 <0>         0.1371
     49 H14        -1.1402   -4.5863    2.9057 H         1 <0>         0.4285
     50 H15        -0.0657  -10.0355    6.4475 H         1 <0>         0.1351
     51 H16        -0.2185  -12.3228    7.2876 H         1 <0>         0.1389
     52 H17        -3.1460  -10.8847    3.5842 H         1 <0>         0.1296
     53 H18        -4.5226  -13.3654    4.5575 H         1 <0>         0.0939
     54 H19        -3.2807  -13.8803    3.3805 H         1 <0>         0.0927
     55 H20        -3.9876  -15.1377    5.8991 H         1 <0>         0.0985
     56 H21        -2.7441  -15.6533    4.7206 H         1 <0>         0.0977
     57 H22        -1.3014  -16.7870    8.0954 H         1 <0>         0.4100
     58 H23        -2.7648   -9.3538    6.9795 H         1 <0>         0.1364
     59 H24        -2.7178   -9.1647    9.4317 H         1 <0>         0.1602
     60 H25        -0.1394   -5.9163    9.2554 H         1 <0>         0.1595
     61 H26        -0.0869   -5.9981    6.7973 H         1 <0>         0.1377
     62 H27         1.3898   -1.6520   -1.8136 H         1 <0>         0.4270
@<TRIPOS>BOND
     1    1    2 1
     2    1   37 1
     3    1   38 1
     4    1   39 1
     5    2    3 1
     6    2    4 1
     7    2   62 1
     8    3   40 1
     9    3   41 1
    10    3   42 1
    11    4    5 1
    12    4   43 1
    13    4   44 1
    14    5   10 ar
    15    5    6 ar
    16    6    7 ar
    17    6   45 1
    18    7    8 ar
    19    7   46 1
    20    8    9 ar
    21    8   47 1
    22    9   10 ar
    23    9   11 1
    24   10   48 1
    25   11   12 am
    26   11   49 1
    27   12   13 2
    28   12   14 1
    29   14   15 2
    30   14   19 1
    31   15   17 1
    32   16   19 1
    33   17   31 1
    34   17   18 2
    35   18   20 1
    36   18   19 1
    37   20   25 ar
    38   20   21 ar
    39   21   22 ar
    40   21   50 1
    41   22   23 ar
    42   22   51 1
    43   23   28 1
    44   23   24 ar
    45   24   25 ar
    46   24   26 1
    47   25   52 1
    48   26   27 1
    49   26   53 1
    50   26   54 1
    51   27   28 1
    52   27   55 1
    53   27   56 1
    54   28   29 2
    55   29   30 1
    56   30   57 1
    57   31   36 ar
    58   31   32 ar
    59   32   33 ar
    60   32   58 1
    61   33   34 ar
    62   33   59 1
    63   34   35 ar
    64   35   36 ar
    65   35   60 1
    66   36   61 1
@<TRIPOS>MOLECULE
CHEMBL1087397
   63    67     0     0     0
SMALL
USER_CHARGES

@<TRIPOS>ATOM
      1 C1          0.0548    1.5869    1.2442 C.3       1 <0>        -0.0527
      2 N1          0.0781    0.1265    1.4010 N.4       1 <0>        -0.3865
      3 C2         -1.2918   -0.3669    1.5958 C.3       1 <0>        -0.0473
      4 C3          0.6525   -0.4864    0.1958 C.3       1 <0>         0.0459
      5 C4          2.0966   -0.0766    0.0635 C.ar      1 <0>        -0.1759
      6 C5          2.4259    1.0706   -0.6362 C.ar      1 <0>        -0.0906
      7 C6          3.7463    1.4510   -0.7609 C.ar      1 <0>        -0.1130
      8 C7          4.7501    0.6765   -0.1793 C.ar      1 <0>         0.0628
      9 C8          4.4117   -0.4787    0.5253 C.ar      1 <0>        -0.0978
     10 C9          3.0873   -0.8461    0.6471 C.ar      1 <0>        -0.0871
     11 C10         6.1696    1.0790   -0.3098 C.2       1 <0>        -0.2363
     12 C11         6.8279    1.4275   -1.4939 C.2       1 <0>         0.1158
     13 N2          8.0739    1.7246   -1.2145 N.2       1 <0>        -0.2930
     14 N3          8.2840    1.5836    0.1612 N.pl3     1 <0>        -0.3000
     15 C12         7.1018    1.1876    0.7307 C.2       1 <0>         0.2906
     16 N4          7.0119    0.9807    2.0473 N.2       1 <0>        -0.4732
     17 C13         8.0480    1.1522    2.8376 C.2       1 <0>         0.1957
     18 C14         9.2773    1.5587    2.3127 C.2       1 <0>        -0.2112
     19 C15         9.3913    1.7689    0.9535 C.2       1 <0>         0.2561
     20 C16        10.6749    2.2011    0.3639 C.ar      1 <0>        -0.0643
     21 C17        10.7868    3.4640   -0.2227 C.ar      1 <0>        -0.0842
     22 C18        11.9868    3.8650   -0.7727 C.ar      1 <0>        -0.0945
     23 C19        13.0815    3.0210   -0.7459 C.ar      1 <0>        -0.1162
     24 C20        12.9807    1.7623   -0.1650 C.ar      1 <0>         0.1488
     25 C21        11.7812    1.3518    0.3960 C.ar      1 <0>        -0.0816
     26 N5         14.0912    0.9122   -0.1410 N.am      1 <0>        -0.6686
     27 C22        13.9208   -0.4216   -0.2320 C.2       1 <0>         0.5649
     28 O1         12.8130   -0.8807   -0.4314 O.2       1 <0>        -0.5088
     29 C23        15.0811   -1.3263   -0.0895 C.ar      1 <0>        -0.1420
     30 C24        16.3538   -0.8026    0.1452 C.ar      1 <0>        -0.0533
     31 C25        17.4321   -1.6524    0.2777 C.ar      1 <0>        -0.1215
     32 C26        17.2546   -3.0212    0.1784 C.ar      1 <0>        -0.0396
     33 C27        15.9962   -3.5467   -0.0541 C.ar      1 <0>        -0.1879
     34 C28        14.9081   -2.7081   -0.1833 C.ar      1 <0>        -0.0066
     35 C29        15.8124   -5.0386   -0.1612 C.3       1 <0>         0.5100
     36 F1         17.0474   -5.6739    0.0074 F         1 <0>        -0.1728
     37 F2         14.9259   -5.4717    0.8306 F         1 <0>        -0.1732
     38 F3         15.2933   -5.3552   -1.4212 F         1 <0>        -0.1724
     39 H1          1.0713    1.9530    1.0996 H         1 <0>         0.1245
     40 H2         -0.5526    1.8497    0.3781 H         1 <0>         0.1211
     41 H3         -0.3714    2.0416    2.1384 H         1 <0>         0.1223
     42 H4         -1.8993   -0.1041    0.7298 H         1 <0>         0.1216
     43 H5         -1.2746   -1.4505    1.7122 H         1 <0>         0.1229
     44 H6         -1.7180    0.0878    2.4901 H         1 <0>         0.1234
     45 H7          0.5884   -1.5716    0.2743 H         1 <0>         0.1346
     46 H8          0.0981   -0.1522   -0.6812 H         1 <0>         0.1335
     47 H9          1.6478    1.6694   -1.0861 H         1 <0>         0.1300
     48 H10         4.0022    2.3464   -1.3079 H         1 <0>         0.1342
     49 H11         5.1845   -1.0826    0.9775 H         1 <0>         0.1315
     50 H12         2.8238   -1.7382    1.1958 H         1 <0>         0.1297
     51 H13         6.3825    1.4481   -2.4776 H         1 <0>         0.2018
     52 H14         7.9485    0.9781    3.8989 H         1 <0>         0.1883
     53 H15        10.1290    1.7005    2.9614 H         1 <0>         0.1738
     54 H16         9.9339    4.1261   -0.2461 H         1 <0>         0.1260
     55 H17        12.0713    4.8416   -1.2262 H         1 <0>         0.1394
     56 H18        14.0182    3.3407   -1.1781 H         1 <0>         0.1365
     57 H19        11.7023    0.3762    0.8524 H         1 <0>         0.1413
     58 H20        14.9839    1.2827   -0.0587 H         1 <0>         0.4150
     59 H21        16.4937    0.2655    0.2226 H         1 <0>         0.1376
     60 H22        18.4172   -1.2486    0.4590 H         1 <0>         0.1483
     61 H23        18.1023   -3.6822    0.2826 H         1 <0>         0.1492
     62 H24        13.9255   -3.1198   -0.3604 H         1 <0>         0.1487
     63 H25         0.6404   -0.1168    2.2027 H         1 <0>         0.4262
@<TRIPOS>BOND
     1    1    2 1
     2    1   39 1
     3    1   40 1
     4    1   41 1
     5    2    3 1
     6    2    4 1
     7    2   63 1
     8    3   42 1
     9    3   43 1
    10    3   44 1
    11    4    5 1
    12    4   45 1
    13    4   46 1
    14    5   10 ar
    15    5    6 ar
    16    6    7 ar
    17    6   47 1
    18    7    8 ar
    19    7   48 1
    20    8    9 ar
    21    8   11 1
    22    9   10 ar
    23    9   49 1
    24   10   50 1
    25   11   15 2
    26   11   12 1
    27   12   13 2
    28   12   51 1
    29   13   14 1
    30   14   19 1
    31   14   15 1
    32   15   16 1
    33   16   17 2
    34   17   18 1
    35   17   52 1
    36   18   19 2
    37   18   53 1
    38   19   20 1
    39   20   25 ar
    40   20   21 ar
    41   21   22 ar
    42   21   54 1
    43   22   23 ar
    44   22   55 1
    45   23   24 ar
    46   23   56 1
    47   24   25 ar
    48   24   26 1
    49   25   57 1
    50   26   27 am
    51   26   58 1
    52   27   28 2
    53   27   29 1
    54   29   34 ar
    55   29   30 ar
    56   30   31 ar
    57   30   59 1
    58   31   32 ar
    59   31   60 1
    60   32   33 ar
    61   32   61 1
    62   33   34 ar
    63   33   35 1
    64   34   62 1
    65   35   36 1
    66   35   37 1
    67   35   38 1
@<TRIPOS>MOLECULE
CHEMBL478190
   63    67     0     0     0
SMALL
USER_CHARGES

@<TRIPOS>ATOM
      1 C1          0.3615    0.7823    0.5720 C.3       1 <0>        -0.1848
      2 C2          0.2520   -0.7430    0.6181 C.3       1 <0>         0.0322
      3 C3         -1.2196   -1.1517    0.5260 C.3       1 <0>         0.0469
      4 O1         -1.9615   -0.4957    1.5562 O.3       1 <0>        -0.3010
      5 C4         -3.2905   -0.7512    1.6148 C.ar      1 <0>         0.5038
      6 N1         -3.8258   -1.5840    0.7358 N.ar      1 <0>        -0.5657
      7 C5         -5.1200   -1.8610    0.7587 C.ar      1 <0>         0.1997
      8 C6         -5.9219   -1.2686    1.7183 C.ar      1 <0>        -0.2057
      9 C7         -5.3280   -0.3934    2.6333 C.ar      1 <0>         0.2975
     10 N2         -4.0169   -0.1669    2.5512 N.ar      1 <0>        -0.5267
     11 C8         -6.1403    0.2662    3.6781 C.2       1 <0>         0.2343
     12 N3         -5.6667    1.1385    4.6147 N.pl3     1 <0>        -0.5261
     13 H1         -4.7481    1.4336    4.7141 H         1 <0>         0.4326
     14 C9         -6.7333    1.5205    5.3899 C.2       1 <0>         0.0629
     15 C10        -7.8416    0.8529    4.8869 C.2       1 <0>         0.0832
     16 N4         -7.4332    0.1099    3.8486 N.2       1 <0>        -0.4240
     17 C11        -9.2265    0.9485    5.4013 C.ar      1 <0>         0.0069
     18 C12        -9.7569    2.1906    5.7557 C.ar      1 <0>        -0.1031
     19 C13       -11.0425    2.2779    6.2325 C.ar      1 <0>        -0.0672
     20 C14       -11.8277    1.1223    6.3656 C.ar      1 <0>        -0.0536
     21 C15       -11.2954   -0.1163    6.0110 C.ar      1 <0>        -0.0606
     22 C16       -10.0060   -0.2012    5.5274 C.ar      1 <0>        -0.0799
     23 C17       -12.3252   -1.1963    6.2425 C.3       1 <0>        -0.0827
     24 C18       -13.5753   -0.4923    6.7871 C.3       1 <0>        -0.1145
     25 C19       -13.2147    0.9721    6.8481 C.2       1 <0>         0.1678
     26 N5        -13.9866    1.9288    7.2526 N.2       1 <0>        -0.3203
     27 O2        -15.3017    1.6401    7.6909 O.3       1 <0>        -0.4023
     28 C20        -6.7068    2.4546    6.5317 C.ar      1 <0>         0.0123
     29 C21        -7.3327    2.1300    7.7428 C.ar      1 <0>        -0.1371
     30 C22        -7.2825    3.0328    8.7836 C.ar      1 <0>         0.1107
     31 N6         -6.6571    4.1873    8.6502 N.ar      1 <0>        -0.4734
     32 C23        -6.0548    4.5329    7.5279 C.ar      1 <0>         0.1081
     33 C24        -6.0499    3.6889    6.4377 C.ar      1 <0>        -0.1621
     34 N7          0.8192   -1.2368    1.8800 N.4       1 <0>        -0.3883
     35 C25         0.7140   -2.7013    1.9243 C.3       1 <0>        -0.0544
     36 C26         2.2321   -0.8444    1.9685 C.3       1 <0>        -0.0520
     37 H2          1.4099    1.0735    0.6376 H         1 <0>         0.0876
     38 H3         -0.0594    1.1487   -0.3643 H         1 <0>         0.1071
     39 H4         -0.1879    1.2116    1.4099 H         1 <0>         0.0897
     40 H5          0.8014   -1.1723   -0.2198 H         1 <0>         0.1591
     41 H6         -1.6165   -0.8634   -0.4474 H         1 <0>         0.1176
     42 H7         -1.3051   -2.2315    0.6479 H         1 <0>         0.0981
     43 H8         -5.5454   -2.5417    0.0361 H         1 <0>         0.1896
     44 H9         -6.9809   -1.4767    1.7594 H         1 <0>         0.1736
     45 H10        -9.1565    3.0827    5.6554 H         1 <0>         0.1268
     46 H11       -11.4504    3.2397    6.5063 H         1 <0>         0.1332
     47 H12        -9.5976   -1.1615    5.2492 H         1 <0>         0.1333
     48 H13       -12.5579   -1.6989    5.3037 H         1 <0>         0.0920
     49 H14       -11.9542   -1.9170    6.9713 H         1 <0>         0.0915
     50 H15       -14.4186   -0.6458    6.1138 H         1 <0>         0.0963
     51 H16       -13.8142   -0.8641    7.7835 H         1 <0>         0.0964
     52 H17       -15.8017    2.4180    7.9736 H         1 <0>         0.4082
     53 H18        -7.8469    1.1874    7.8589 H         1 <0>         0.1420
     54 H19        -7.7618    2.7920    9.7210 H         1 <0>         0.1646
     55 H20        -5.5555    5.4884    7.4639 H         1 <0>         0.1621
     56 H21        -5.5510    3.9764    5.5240 H         1 <0>         0.1342
     57 H22         1.1349   -3.0677    2.8606 H         1 <0>         0.1281
     58 H23        -0.3343   -2.9925    1.8587 H         1 <0>         0.1210
     59 H24         1.2634   -3.1306    1.0864 H         1 <0>         0.1262
     60 H25         2.3101    0.2423    1.9356 H         1 <0>         0.1268
     61 H26         2.6530   -1.2108    2.9048 H         1 <0>         0.1265
     62 H27         2.7815   -1.2737    1.1306 H         1 <0>         0.1243
     63 H28         0.3106   -0.8395    2.6556 H         1 <0>         0.4307
@<TRIPOS>BOND
     1    1    2 1
     2    1   37 1
     3    1   38 1
     4    1   39 1
     5    2    3 1
     6    2   34 1
     7    2   40 1
     8    3    4 1
     9    3   41 1
    10    3   42 1
    11    4    5 1
    12    5   10 ar
    13    5    6 ar
    14    6    7 ar
    15    7    8 ar
    16    7   43 1
    17    8    9 ar
    18    8   44 1
    19    9   10 ar
    20    9   11 1
    21   11   16 2
    22   11   12 1
    23   12   13 1
    24   12   14 1
    25   14   15 2
    26   14   28 1
    27   15   16 1
    28   15   17 1
    29   17   22 ar
    30   17   18 ar
    31   18   19 ar
    32   18   45 1
    33   19   20 ar
    34   19   46 1
    35   20   25 1
    36   20   21 ar
    37   21   22 ar
    38   21   23 1
    39   22   47 1
    40   23   24 1
    41   23   48 1
    42   23   49 1
    43   24   25 1
    44   24   50 1
    45   24   51 1
    46   25   26 2
    47   26   27 1
    48   27   52 1
    49   28   33 ar
    50   28   29 ar
    51   29   30 ar
    52   29   53 1
    53   30   31 ar
    54   30   54 1
    55   31   32 ar
    56   32   33 ar
    57   32   55 1
    58   33   56 1
    59   34   35 1
    60   34   36 1
    61   34   63 1
    62   35   57 1
    63   35   58 1
    64   35   59 1
    65   36   60 1
    66   36   61 1
    67   36   62 1
@<TRIPOS>MOLECULE
CHEMBL478190__1
   64    68     0     0     0
SMALL
USER_CHARGES

@<TRIPOS>ATOM
      1 C1          0.0631    1.9362   -0.0361 C.3       1 <0>        -0.1862
      2 C2          0.2477    0.4184    0.0202 C.3       1 <0>         0.0315
      3 C3          0.9892   -0.0521   -1.2327 C.3       1 <0>         0.0437
      4 O1          0.2894    0.3941   -2.3960 O.3       1 <0>        -0.2928
      5 C4          0.8177    0.0592   -3.5976 C.ar      1 <0>         0.5283
      6 N1          1.9315   -0.6556   -3.6351 N.ar      1 <0>        -0.5373
      7 C5          2.4801   -1.0042   -4.7881 C.ar      1 <0>         0.2293
      8 C6          1.8765   -0.6131   -5.9703 C.ar      1 <0>        -0.2117
      9 C7          0.7009    0.1412   -5.8990 C.ar      1 <0>         0.2406
     10 N2          0.2047    0.4501   -4.7009 N.ar      1 <0>        -0.5094
     11 C8          0.0168    0.5847   -7.1326 C.cat     1 <0>         0.3450
     12 N3          0.4296    0.3171   -8.4056 N.pl3     1 <0>        -0.4776
     13 H1          1.2151   -0.1914   -8.6610 H         1 <0>         0.4684
     14 C9         -0.4744    0.9021   -9.2569 C.2       1 <0>         0.1482
     15 C10        -1.4255    1.5181   -8.4550 C.2       1 <0>         0.1270
     16 N4         -1.0878    1.2939   -7.1772 N.pl3     1 <0>        -0.4309
     17 C11        -2.6036    2.2806   -8.9262 C.ar      1 <0>        -0.0666
     18 C12        -3.4251    1.7527   -9.9243 C.ar      1 <0>        -0.0742
     19 C13        -4.5185    2.4614  -10.3603 C.ar      1 <0>        -0.0670
     20 C14        -4.8151    3.7164   -9.8064 C.ar      1 <0>        -0.0103
     21 C15        -3.9930    4.2407   -8.8100 C.ar      1 <0>        -0.0577
     22 C16        -2.8986    3.5252   -8.3699 C.ar      1 <0>        -0.0785
     23 C17        -4.5157    5.5904   -8.3791 C.3       1 <0>        -0.0853
     24 C18        -5.7691    5.8584   -9.2231 C.3       1 <0>        -0.1156
     25 C19        -5.9196    4.6471  -10.1109 C.2       1 <0>         0.1473
     26 N5         -6.8538    4.4576  -10.9862 N.2       1 <0>        -0.3006
     27 O2         -7.8562    5.4395  -11.1757 O.3       1 <0>        -0.3885
     28 C20        -0.4412    0.8812  -10.7319 C.ar      1 <0>        -0.0330
     29 C21        -0.6301    2.0551  -11.4736 C.ar      1 <0>        -0.1230
     30 C22        -0.5906    1.9891  -12.8501 C.ar      1 <0>         0.1206
     31 N6         -0.3793    0.8423  -13.4682 N.ar      1 <0>        -0.4513
     32 C23        -0.1967   -0.2863  -12.8089 C.ar      1 <0>         0.1189
     33 C24        -0.2142   -0.3123  -11.4306 C.ar      1 <0>        -0.1447
     34 N7         -1.0675   -0.2328    0.0842 N.4       1 <0>        -0.3886
     35 C25        -0.8903   -1.6901    0.1383 C.3       1 <0>        -0.0556
     36 C26        -1.7795    0.2189    1.2872 C.3       1 <0>        -0.0537
     37 H2          1.0390    2.4193   -0.0837 H         1 <0>         0.1086
     38 H3         -0.5160    2.1991   -0.9213 H         1 <0>         0.0878
     39 H4         -0.4652    2.2713    0.8565 H         1 <0>         0.0922
     40 H5          0.8268    0.1554    0.9054 H         1 <0>         0.1647
     41 H6          1.9978    0.3612   -1.2346 H         1 <0>         0.1238
     42 H7          1.0426   -1.1407   -1.2360 H         1 <0>         0.1044
     43 H8          3.3891   -1.5872   -4.8060 H         1 <0>         0.2054
     44 H9          2.3030   -0.8835   -6.9250 H         1 <0>         0.1694
     45 H10        -3.2009    0.7876  -10.3539 H         1 <0>         0.1387
     46 H11        -5.1522    2.0511  -11.1326 H         1 <0>         0.1470
     47 H12        -2.2659    3.9318   -7.5947 H         1 <0>         0.1341
     48 H13        -4.7746    5.5708   -7.3205 H         1 <0>         0.0959
     49 H14        -3.7664    6.3593   -8.5673 H         1 <0>         0.0984
     50 H15        -6.6421    5.9655   -8.5792 H         1 <0>         0.1013
     51 H16        -5.6326    6.7551   -9.8277 H         1 <0>         0.1026
     52 H17        -8.5100    5.2092  -11.8500 H         1 <0>         0.4157
     53 H18        -0.8042    2.9969  -10.9746 H         1 <0>         0.1481
     54 H19        -0.7350    2.8882  -13.4307 H         1 <0>         0.1744
     55 H20        -0.0273   -1.2015  -13.3567 H         1 <0>         0.1738
     56 H21        -0.0594   -1.2387  -10.8976 H         1 <0>         0.1434
     57 H22        -0.3112   -1.9530    1.0235 H         1 <0>         0.1293
     58 H23        -1.8662   -2.1732    0.1859 H         1 <0>         0.1307
     59 H24        -0.3621   -2.0252   -0.7542 H         1 <0>         0.1181
     60 H25        -1.9110    1.3002    1.2471 H         1 <0>         0.1283
     61 H26        -2.7554   -0.2643    1.3347 H         1 <0>         0.1291
     62 H27        -1.2004   -0.0441    2.1724 H         1 <0>         0.1272
     63 H28        -1.6036    0.0106   -0.7352 H         1 <0>         0.4281
     64 H29        -1.5820    1.6090   -6.4043 H         1 <0>         0.4709
@<TRIPOS>BOND
     1    1    2 1
     2    1   37 1
     3    1   38 1
     4    1   39 1
     5    2    3 1
     6    2   34 1
     7    2   40 1
     8    3    4 1
     9    3   41 1
    10    3   42 1
    11    4    5 1
    12    5   10 ar
    13    5    6 ar
    14    6    7 ar
    15    7    8 ar
    16    7   43 1
    17    8    9 ar
    18    8   44 1
    19    9   10 ar
    20    9   11 1
    21   11   16 2
    22   11   12 1
    23   12   13 1
    24   12   14 1
    25   14   15 2
    26   14   28 1
    27   15   16 1
    28   15   17 1
    29   16   64 1
    30   17   22 ar
    31   17   18 ar
    32   18   19 ar
    33   18   45 1
    34   19   20 ar
    35   19   46 1
    36   20   25 1
    37   20   21 ar
    38   21   22 ar
    39   21   23 1
    40   22   47 1
    41   23   24 1
    42   23   48 1
    43   23   49 1
    44   24   25 1
    45   24   50 1
    46   24   51 1
    47   25   26 2
    48   26   27 1
    49   27   52 1
    50   28   33 ar
    51   28   29 ar
    52   29   30 ar
    53   29   53 1
    54   30   31 ar
    55   30   54 1
    56   31   32 ar
    57   32   33 ar
    58   32   55 1
    59   33   56 1
    60   34   35 1
    61   34   36 1
    62   34   63 1
    63   35   57 1
    64   35   58 1
    65   35   59 1
    66   36   60 1
    67   36   61 1
    68   36   62 1
@<TRIPOS>MOLECULE
CHEMBL478190__2
   63    67     0     0     0
SMALL
USER_CHARGES

@<TRIPOS>ATOM
      1 C1         -0.0187    1.5258    0.0104 C.3       1 <0>        -0.1847
      2 C2          0.0021   -0.0041    0.0020 C.3       1 <0>         0.0322
      3 C3         -1.4333   -0.5336    0.0129 C.3       1 <0>         0.0469
      4 O1         -2.1371    0.0205    1.1263 O.3       1 <0>        -0.3009
      5 C4         -3.4308   -0.3496    1.2820 C.ar      1 <0>         0.5038
      6 N1         -3.9681   -1.1942    0.4156 N.ar      1 <0>        -0.5661
      7 C5         -5.2285   -1.5817    0.5319 C.ar      1 <0>         0.1999
      8 C6         -5.9926   -1.0935    1.5771 C.ar      1 <0>        -0.2064
      9 C7         -5.3977   -0.2027    2.4765 C.ar      1 <0>         0.2982
     10 N2         -4.1212    0.1378    2.2977 N.ar      1 <0>        -0.5266
     11 C8         -6.1704    0.3484    3.6101 C.2       1 <0>         0.2317
     12 N3         -7.4265    0.0757    3.8789 N.2       1 <0>        -0.4219
     13 H1         -4.7909    1.5802    4.5889 H         1 <0>         0.4331
     14 C9         -7.8066    0.7467    4.9751 C.2       1 <0>         0.0699
     15 C10        -6.7167    1.4849    5.4174 C.2       1 <0>         0.0786
     16 N4         -5.6896    1.2175    4.5475 N.pl3     1 <0>        -0.5273
     17 C11        -6.6706    2.3749    6.5919 C.ar      1 <0>        -0.0168
     18 C12        -7.7174    3.2703    6.8349 C.ar      1 <0>        -0.0870
     19 C13        -7.6725    4.0921    7.9222 C.ar      1 <0>        -0.0651
     20 C14        -6.5790    4.0448    8.8015 C.ar      1 <0>        -0.0441
     21 C15        -5.5364    3.1513    8.5574 C.ar      1 <0>        -0.0601
     22 C16        -5.5838    2.3223    7.4685 C.ar      1 <0>        -0.0948
     23 C17        -4.4873    3.2893    9.6349 C.3       1 <0>        -0.0825
     24 C18        -4.9909    4.3783   10.5918 C.3       1 <0>        -0.1142
     25 C19        -6.3161    4.8267   10.0253 C.2       1 <0>         0.1628
     26 N5         -7.0870    5.7384   10.5251 N.2       1 <0>        -0.3138
     27 O2         -6.7088    6.4131   11.7112 O.3       1 <0>        -0.3996
     28 C20        -9.1478    0.7083    5.6017 C.ar      1 <0>         0.0315
     29 C21        -9.2952    0.7950    6.9905 C.ar      1 <0>        -0.1547
     30 C22       -10.5629    0.7556    7.5321 C.ar      1 <0>         0.1044
     31 N6        -11.6264    0.6377    6.7597 N.ar      1 <0>        -0.4789
     32 C23       -11.5316    0.5529    5.4462 C.ar      1 <0>         0.1029
     33 C24       -10.3029    0.5900    4.8210 C.ar      1 <0>        -0.1447
     34 N7          0.7126   -0.4907    1.1921 N.4       1 <0>        -0.3882
     35 C25         0.7325   -1.9595    1.1840 C.3       1 <0>        -0.0545
     36 C26         2.0907    0.0178    1.1817 C.3       1 <0>        -0.0521
     37 H2          1.0039    1.9031    0.0027 H         1 <0>         0.0875
     38 H3         -0.5459    1.8868   -0.8726 H         1 <0>         0.1071
     39 H4         -0.5289    1.8773    0.9072 H         1 <0>         0.0898
     40 H5          0.5123   -0.3556   -0.8948 H         1 <0>         0.1591
     41 H6         -1.9334   -0.2470   -0.9122 H         1 <0>         0.1176
     42 H7         -1.4190   -1.6203    0.0965 H         1 <0>         0.0980
     43 H8         -5.6558   -2.2709   -0.1813 H         1 <0>         0.1895
     44 H9         -7.0236   -1.3928    1.6954 H         1 <0>         0.1731
     45 H10        -8.5607    3.3110    6.1614 H         1 <0>         0.1356
     46 H11        -8.4818    4.7829    8.1076 H         1 <0>         0.1386
     47 H12        -4.7769    1.6283    7.2846 H         1 <0>         0.1271
     48 H13        -4.3729    2.3459   10.1687 H         1 <0>         0.0926
     49 H14        -3.5361    3.5886    9.1949 H         1 <0>         0.0903
     50 H15        -5.1275    3.9680   11.5924 H         1 <0>         0.0981
     51 H16        -4.2896    5.2123   10.6174 H         1 <0>         0.0967
     52 H17        -7.3475    7.0760   12.0073 H         1 <0>         0.4102
     53 H18        -8.4293    0.8910    7.6287 H         1 <0>         0.1351
     54 H19       -10.6869    0.8219    8.6029 H         1 <0>         0.1591
     55 H20       -12.4287    0.4570    4.8525 H         1 <0>         0.1605
     56 H21       -10.2331    0.5248    3.7453 H         1 <0>         0.1399
     57 H22         1.2427   -2.3111    0.2873 H         1 <0>         0.1262
     58 H23         1.2597   -2.3206    2.0671 H         1 <0>         0.1281
     59 H24        -0.2901   -2.3368    1.1918 H         1 <0>         0.1211
     60 H25         2.0759    1.1077    1.1877 H         1 <0>         0.1268
     61 H26         2.6179   -0.3433    2.0648 H         1 <0>         0.1265
     62 H27         2.6009   -0.3338    0.2849 H         1 <0>         0.1243
     63 H28         0.2403   -0.1653    2.0223 H         1 <0>         0.4306
@<TRIPOS>BOND
     1    1    2 1
     2    1   37 1
     3    1   38 1
     4    1   39 1
     5    2    3 1
     6    2   34 1
     7    2   40 1
     8    3    4 1
     9    3   41 1
    10    3   42 1
    11    4    5 1
    12    5   10 ar
    13    5    6 ar
    14    6    7 ar
    15    7    8 ar
    16    7   43 1
    17    8    9 ar
    18    8   44 1
    19    9   10 ar
    20    9   11 1
    21   11   12 2
    22   11   16 1
    23   12   14 1
    24   13   16 1
    25   14   28 1
    26   14   15 2
    27   15   17 1
    28   15   16 1
    29   17   22 ar
    30   17   18 ar
    31   18   19 ar
    32   18   45 1
    33   19   20 ar
    34   19   46 1
    35   20   25 1
    36   20   21 ar
    37   21   22 ar
    38   21   23 1
    39   22   47 1
    40   23   24 1
    41   23   48 1
    42   23   49 1
    43   24   25 1
    44   24   50 1
    45   24   51 1
    46   25   26 2
    47   26   27 1
    48   27   52 1
    49   28   33 ar
    50   28   29 ar
    51   29   30 ar
    52   29   53 1
    53   30   31 ar
    54   30   54 1
    55   31   32 ar
    56   32   33 ar
    57   32   55 1
    58   33   56 1
    59   34   35 1
    60   34   36 1
    61   34   63 1
    62   35   57 1
    63   35   58 1
    64   35   59 1
    65   36   60 1
    66   36   61 1
    67   36   62 1
@<TRIPOS>MOLECULE
CHEMBL478190__3
   63    67     0     0     0
SMALL
USER_CHARGES

@<TRIPOS>ATOM
      1 C1          0.5805    2.3182    0.1691 C.3       1 <0>        -0.1848
      2 C2          0.5911    0.7966    0.0095 C.3       1 <0>         0.0322
      3 C3          1.2343    0.1589    1.2426 C.3       1 <0>         0.0469
      4 O1          0.5545    0.6038    2.4182 O.3       1 <0>        -0.3010
      5 C4          1.0032    0.1288    3.6049 C.ar      1 <0>         0.5037
      6 N1          2.0326   -0.7036    3.6180 N.ar      1 <0>        -0.5656
      7 C5          2.5022   -1.1903    4.7558 C.ar      1 <0>         0.1998
      8 C6          1.9045   -0.8204    5.9478 C.ar      1 <0>        -0.2057
      9 C7          0.8190    0.0603    5.9023 C.ar      1 <0>         0.2974
     10 N2          0.4051    0.5129    4.7187 N.ar      1 <0>        -0.5266
     11 C8          0.1445    0.4866    7.1473 C.2       1 <0>         0.2344
     12 N3         -0.9226    1.3343    7.2181 N.pl3     1 <0>        -0.5260
     13 H1         -1.3694    1.7609    6.4703 H         1 <0>         0.4326
     14 C9         -1.2455    1.4706    8.5453 C.2       1 <0>         0.0629
     15 C10        -0.3444    0.6843    9.2501 C.2       1 <0>         0.0832
     16 N4          0.4737    0.1049    8.3601 N.2       1 <0>        -0.4240
     17 C11        -0.2986    0.5122   10.7197 C.ar      1 <0>         0.0069
     18 C12        -1.4815    0.3365   11.4407 C.ar      1 <0>        -0.1033
     19 C13        -1.4374    0.1764   12.8045 C.ar      1 <0>        -0.0674
     20 C14        -0.2067    0.1886   13.4790 C.ar      1 <0>        -0.0537
     21 C15         0.9725    0.3642   12.7564 C.ar      1 <0>        -0.0603
     22 C16         0.9266    0.5195   11.3863 C.ar      1 <0>        -0.0798
     23 C17         2.1529    0.3406   13.6981 C.3       1 <0>        -0.0829
     24 C18         1.5792    0.1286   15.1056 C.3       1 <0>        -0.1145
     25 C19         0.0842    0.0381   14.9183 C.2       1 <0>         0.1680
     26 N5         -0.7899   -0.1402   15.8558 N.2       1 <0>        -0.3205
     27 O2         -0.3684   -0.2696   17.2015 O.3       1 <0>        -0.4023
     28 C20        -2.3339    2.2908    9.1106 C.ar      1 <0>         0.0125
     29 C21        -2.1021    3.1462   10.1962 C.ar      1 <0>        -0.1367
     30 C22        -3.1484    3.8947   10.6921 C.ar      1 <0>         0.1112
     31 N6         -4.3530    3.8128   10.1592 N.ar      1 <0>        -0.4734
     32 C23        -4.6150    3.0206    9.1367 C.ar      1 <0>         0.1078
     33 C24        -3.6273    2.2408    8.5735 C.ar      1 <0>        -0.1624
     34 N7         -0.7876    0.3094   -0.1309 N.4       1 <0>        -0.3883
     35 C25        -1.4051    0.9216   -1.3149 C.3       1 <0>        -0.0521
     36 C26        -0.7774   -1.1516   -0.2842 C.3       1 <0>        -0.0544
     37 H2          1.6035    2.6797    0.2733 H         1 <0>         0.1071
     38 H3          0.1223    2.7725   -0.7094 H         1 <0>         0.0876
     39 H4          0.0082    2.5864    1.0572 H         1 <0>         0.0897
     40 H5          1.1635    0.5284   -0.8785 H         1 <0>         0.1591
     41 H6          1.1621   -0.9263    1.1699 H         1 <0>         0.0980
     42 H7          2.2832    0.4504    1.2971 H         1 <0>         0.1177
     43 H8          3.3423   -1.8689    4.7539 H         1 <0>         0.1896
     44 H9          2.2672   -1.2028    6.8905 H         1 <0>         0.1736
     45 H10        -2.4311    0.3267   10.9262 H         1 <0>         0.1266
     46 H11        -2.3537    0.0410   13.3600 H         1 <0>         0.1330
     47 H12         1.8420    0.6509   10.8285 H         1 <0>         0.1335
     48 H13         2.8217   -0.4802   13.4391 H         1 <0>         0.0920
     49 H14         2.6880    1.2890   13.6511 H         1 <0>         0.0917
     50 H15         1.9628   -0.7972   15.5342 H         1 <0>         0.0963
     51 H16         1.8289    0.9742   15.7464 H         1 <0>         0.0965
     52 H17        -1.0921   -0.3995   17.8295 H         1 <0>         0.4081
     53 H18        -1.1191    3.2178   10.6378 H         1 <0>         0.1422
     54 H19        -2.9800    4.5569   11.5284 H         1 <0>         0.1648
     55 H20        -5.6162    2.9856    8.7330 H         1 <0>         0.1618
     56 H21        -3.8479    1.5983    7.7339 H         1 <0>         0.1335
     57 H22        -2.4281    0.5601   -1.4191 H         1 <0>         0.1265
     58 H23        -1.4127    2.0057   -1.2012 H         1 <0>         0.1268
     59 H24        -0.8328    0.6534   -2.2029 H         1 <0>         0.1243
     60 H25        -0.3192   -1.6059    0.5943 H         1 <0>         0.1210
     61 H26        -1.8004   -1.5131   -0.3884 H         1 <0>         0.1281
     62 H27        -0.2051   -1.4198   -1.1722 H         1 <0>         0.1263
     63 H28        -1.3174    0.5576    0.6911 H         1 <0>         0.4306
@<TRIPOS>BOND
     1    1    2 1
     2    1   37 1
     3    1   38 1
     4    1   39 1
     5    2    3 1
     6    2   34 1
     7    2   40 1
     8    3    4 1
     9    3   41 1
    10    3   42 1
    11    4    5 1
    12    5   10 ar
    13    5    6 ar
    14    6    7 ar
    15    7    8 ar
    16    7   43 1
    17    8    9 ar
    18    8   44 1
    19    9   10 ar
    20    9   11 1
    21   11   16 2
    22   11   12 1
    23   12   13 1
    24   12   14 1
    25   14   15 2
    26   14   28 1
    27   15   16 1
    28   15   17 1
    29   17   22 ar
    30   17   18 ar
    31   18   19 ar
    32   18   45 1
    33   19   20 ar
    34   19   46 1
    35   20   25 1
    36   20   21 ar
    37   21   22 ar
    38   21   23 1
    39   22   47 1
    40   23   24 1
    41   23   48 1
    42   23   49 1
    43   24   25 1
    44   24   50 1
    45   24   51 1
    46   25   26 2
    47   26   27 1
    48   27   52 1
    49   28   33 ar
    50   28   29 ar
    51   29   30 ar
    52   29   53 1
    53   30   31 ar
    54   30   54 1
    55   31   32 ar
    56   32   33 ar
    57   32   55 1
    58   33   56 1
    59   34   35 1
    60   34   36 1
    61   34   63 1
    62   35   57 1
    63   35   58 1
    64   35   59 1
    65   36   60 1
    66   36   61 1
    67   36   62 1
@<TRIPOS>MOLECULE
CHEMBL478190__4
   64    68     0     0     0
SMALL
USER_CHARGES

@<TRIPOS>ATOM
      1 C1          0.1088    1.1906   -0.1503 C.3       1 <0>        -0.1863
      2 C2          0.1577   -0.3281   -0.3295 C.3       1 <0>         0.0315
      3 C3         -1.2664   -0.8874   -0.3327 C.3       1 <0>         0.0438
      4 O1         -2.0379   -0.2202   -1.3335 O.3       1 <0>        -0.2928
      5 C4         -3.3311   -0.6002   -1.4681 C.ar      1 <0>         0.5282
      6 N1         -3.8094   -1.5486   -0.6778 N.ar      1 <0>        -0.5372
      7 C5         -5.0673   -1.9488   -0.7763 C.ar      1 <0>         0.2293
      8 C6         -5.8915   -1.3638   -1.7216 C.ar      1 <0>        -0.2116
      9 C7         -5.3579   -0.3647   -2.5420 C.ar      1 <0>         0.2406
     10 N2         -4.0828   -0.0107   -2.3808 N.ar      1 <0>        -0.5093
     11 C8         -6.1960    0.2920   -3.5681 C.cat     1 <0>         0.3451
     12 N3         -7.5104    0.0161   -3.8106 N.pl3     1 <0>        -0.4777
     13 H1         -8.0562   -0.6383   -3.3471 H         1 <0>         0.4684
     14 C9         -7.9157    0.8375   -4.8330 C.2       1 <0>         0.1483
     15 C10        -6.8103    1.6004   -5.1839 C.2       1 <0>         0.1269
     16 N4         -5.7953    1.2374   -4.3870 N.pl3     1 <0>        -0.4309
     17 C11        -6.7625    2.6328   -6.2438 C.ar      1 <0>        -0.0664
     18 C12        -7.7668    3.5996   -6.3243 C.ar      1 <0>        -0.0737
     19 C13        -7.7208    4.5575   -7.3082 C.ar      1 <0>        -0.0667
     20 C14        -6.6672    4.5696   -8.2353 C.ar      1 <0>        -0.0102
     21 C15        -5.6661    3.6030   -8.1522 C.ar      1 <0>        -0.0583
     22 C16        -5.7112    2.6452   -7.1603 C.ar      1 <0>        -0.0786
     23 C17        -4.6538    3.8254   -9.2506 C.3       1 <0>        -0.0847
     24 C18        -5.1343    5.0503  -10.0403 C.3       1 <0>        -0.1156
     25 C19        -6.4103    5.4872   -9.3627 C.2       1 <0>         0.1470
     26 N5         -7.1499    6.4910   -9.7095 N.2       1 <0>        -0.3002
     27 O2         -6.7823    7.2917  -10.8180 O.3       1 <0>        -0.3885
     28 C20        -9.2595    0.8971   -5.4393 C.ar      1 <0>        -0.0330
     29 C21        -9.4226    0.8968   -6.8312 C.ar      1 <0>        -0.1233
     30 C22       -10.6970    0.9532   -7.3543 C.ar      1 <0>         0.1204
     31 N6        -11.7526    1.0072   -6.5641 N.ar      1 <0>        -0.4513
     32 C23       -11.6444    1.0096   -5.2488 C.ar      1 <0>         0.1191
     33 C24       -10.4091    0.9496   -4.6395 C.ar      1 <0>        -0.1445
     34 N7          0.8131   -0.6500   -1.6042 N.4       1 <0>        -0.3885
     35 C25         2.1805   -0.1130   -1.6010 C.3       1 <0>        -0.0537
     36 C26         0.8601   -2.1081   -1.7761 C.3       1 <0>        -0.0557
     37 H2          1.1234    1.5890   -0.1480 H         1 <0>         0.0922
     38 H3         -0.4543    1.6353   -0.9709 H         1 <0>         0.0879
     39 H4         -0.3775    1.4294    0.7955 H         1 <0>         0.1087
     40 H5          0.7209   -0.7728    0.4911 H         1 <0>         0.1647
     41 H6         -1.2368   -1.9554   -0.5487 H         1 <0>         0.1043
     42 H7         -1.7220   -0.7268    0.6444 H         1 <0>         0.1239
     43 H8         -5.4461   -2.7237   -0.1263 H         1 <0>         0.2054
     44 H9         -6.9216   -1.6716   -1.8235 H         1 <0>         0.1694
     45 H10        -8.5798    3.5943   -5.6135 H         1 <0>         0.1389
     46 H11        -8.4989    5.3040   -7.3687 H         1 <0>         0.1472
     47 H12        -4.9319    1.9003   -7.0955 H         1 <0>         0.1334
     48 H13        -3.6713    4.0195   -8.8202 H         1 <0>         0.0956
     49 H14        -4.6114    2.9529   -9.9025 H         1 <0>         0.0979
     50 H15        -4.3904    5.8455   -9.9933 H         1 <0>         0.1013
     51 H16        -5.3316    4.7775  -11.0770 H         1 <0>         0.1025
     52 H17        -7.3956    8.0169  -10.9999 H         1 <0>         0.4158
     53 H18        -8.5633    0.8535   -7.4840 H         1 <0>         0.1479
     54 H19       -10.8333    0.9535   -8.4257 H         1 <0>         0.1743
     55 H20       -12.5362    1.0552   -4.6412 H         1 <0>         0.1739
     56 H21       -10.3284    0.9473   -3.5625 H         1 <0>         0.1437
     57 H22         2.7436   -0.5577   -0.7805 H         1 <0>         0.1272
     58 H23         2.6668   -0.3518   -2.5469 H         1 <0>         0.1292
     59 H24         2.1456    0.9689   -1.4734 H         1 <0>         0.1283
     60 H25        -0.1545   -2.5066   -1.7785 H         1 <0>         0.1181
     61 H26         1.3464   -2.3469   -2.7220 H         1 <0>         0.1307
     62 H27         1.4232   -2.5528   -0.9556 H         1 <0>         0.1293
     63 H28         0.2919   -0.2383   -2.3637 H         1 <0>         0.4280
     64 H29        -4.9015    1.6135   -4.4128 H         1 <0>         0.4710
@<TRIPOS>BOND
     1    1    2 1
     2    1   37 1
     3    1   38 1
     4    1   39 1
     5    2    3 1
     6    2   34 1
     7    2   40 1
     8    3    4 1
     9    3   41 1
    10    3   42 1
    11    4    5 1
    12    5   10 ar
    13    5    6 ar
    14    6    7 ar
    15    7    8 ar
    16    7   43 1
    17    8    9 ar
    18    8   44 1
    19    9   10 ar
    20    9   11 1
    21   11   16 2
    22   11   12 1
    23   12   13 1
    24   12   14 1
    25   14   15 2
    26   14   28 1
    27   15   16 1
    28   15   17 1
    29   16   64 1
    30   17   22 ar
    31   17   18 ar
    32   18   19 ar
    33   18   45 1
    34   19   20 ar
    35   19   46 1
    36   20   25 1
    37   20   21 ar
    38   21   22 ar
    39   21   23 1
    40   22   47 1
    41   23   24 1
    42   23   48 1
    43   23   49 1
    44   24   25 1
    45   24   50 1
    46   24   51 1
    47   25   26 2
    48   26   27 1
    49   27   52 1
    50   28   33 ar
    51   28   29 ar
    52   29   30 ar
    53   29   53 1
    54   30   31 ar
    55   30   54 1
    56   31   32 ar
    57   32   33 ar
    58   32   55 1
    59   33   56 1
    60   34   35 1
    61   34   36 1
    62   34   63 1
    63   35   57 1
    64   35   58 1
    65   35   59 1
    66   36   60 1
    67   36   61 1
    68   36   62 1
@<TRIPOS>MOLECULE
CHEMBL478190__5
   63    67     0     0     0
SMALL
USER_CHARGES

@<TRIPOS>ATOM
      1 C1         -0.0187    1.5258    0.0104 C.3       1 <0>        -0.1847
      2 C2          0.0021   -0.0041    0.0020 C.3       1 <0>         0.0322
      3 C3          0.7421   -0.5109    1.2415 C.3       1 <0>         0.0469
      4 O1          0.1431    0.0444    2.4141 O.3       1 <0>        -0.3010
      5 C4          0.6834   -0.3066    3.6058 C.ar      1 <0>         0.5037
      6 N1          1.7229   -1.1263    3.6254 N.ar      1 <0>        -0.5659
      7 C5          2.2807   -1.4936    4.7683 C.ar      1 <0>         0.1997
      8 C6          1.7660   -1.0109    5.9585 C.ar      1 <0>        -0.2063
      9 C7          0.6675   -0.1466    5.9060 C.ar      1 <0>         0.2981
     10 N2          0.1623    0.1826    4.7170 N.ar      1 <0>        -0.5265
     11 C8          0.0793    0.3969    7.1487 C.2       1 <0>         0.2317
     12 N3          0.5015    0.1414    8.3656 N.2       1 <0>        -0.4219
     13 H1         -1.4869    1.6024    6.4615 H         1 <0>         0.4331
     14 C9         -0.2596    0.7987    9.2518 C.2       1 <0>         0.0699
     15 C10        -1.2175    1.5092    8.5406 C.2       1 <0>         0.0786
     16 N4         -0.9859    1.2492    7.2132 N.pl3     1 <0>        -0.5274
     17 C11        -2.2710    2.3757    9.1004 C.ar      1 <0>        -0.0170
     18 C12        -3.0177    1.9486   10.2034 C.ar      1 <0>        -0.0874
     19 C13        -3.9911    2.7521   10.7195 C.ar      1 <0>        -0.0654
     20 C14        -4.2490    4.0088   10.1490 C.ar      1 <0>        -0.0442
     21 C15        -3.5034    4.4326    9.0493 C.ar      1 <0>        -0.0595
     22 C16        -2.5222    3.6281    8.5341 C.ar      1 <0>        -0.0947
     23 C17        -3.9651    5.8055    8.6220 C.3       1 <0>        -0.0830
     24 C18        -5.0937    6.2009    9.5838 C.3       1 <0>        -0.1142
     25 C19        -5.2383    5.0351   10.5314 C.2       1 <0>         0.1631
     26 N5         -6.0830    4.9499   11.5084 N.2       1 <0>        -0.3142
     27 O2         -6.9799    6.0154   11.7638 O.3       1 <0>        -0.3996
     28 C20        -0.1067    0.7715   10.7245 C.ar      1 <0>         0.0315
     29 C21        -0.3782    1.9065   11.4965 C.ar      1 <0>        -0.1545
     30 C22        -0.2231    1.8371   12.8650 C.ar      1 <0>         0.1046
     31 N6          0.1753    0.7213   13.4461 N.ar      1 <0>        -0.4789
     32 C23         0.4417   -0.3712   12.7554 C.ar      1 <0>         0.1027
     33 C24         0.3075   -0.3915   11.3830 C.ar      1 <0>        -0.1449
     34 N7         -1.3761   -0.5125    0.0124 N.4       1 <0>        -0.3883
     35 C25        -2.0866   -0.0259   -1.1777 C.3       1 <0>        -0.0520
     36 C26        -1.3562   -1.9814    0.0044 C.3       1 <0>        -0.0545
     37 H2          1.0039    1.9031    0.0027 H         1 <0>         0.1071
     38 H3         -0.5459    1.8868   -0.8726 H         1 <0>         0.0875
     39 H4         -0.5289    1.8773    0.9072 H         1 <0>         0.0897
     40 H5          0.5123   -0.3556   -0.8948 H         1 <0>         0.1591
     41 H6          0.6803   -1.5984    1.2822 H         1 <0>         0.0979
     42 H7          1.7879   -0.2080    1.1895 H         1 <0>         0.1177
     43 H8          3.1282   -2.1632    4.7716 H         1 <0>         0.1895
     44 H9          2.2017   -1.2948    6.9050 H         1 <0>         0.1731
     45 H10        -2.8236    0.9828   10.6459 H         1 <0>         0.1354
     46 H11        -4.5666    2.4201   11.5710 H         1 <0>         0.1384
     47 H12        -1.9434    3.9610    7.6853 H         1 <0>         0.1277
     48 H13        -3.1428    6.5171    8.6974 H         1 <0>         0.0931
     49 H14        -4.3397    5.7727    7.5989 H         1 <0>         0.0906
     50 H15        -4.8231    7.1027   10.1331 H         1 <0>         0.0982
     51 H16        -6.0214    6.3574    9.0333 H         1 <0>         0.0967
     52 H17        -7.5717    5.8604   12.5127 H         1 <0>         0.4101
     53 H18        -0.7039    2.8233   11.0275 H         1 <0>         0.1353
     54 H19        -0.4302    2.7079   13.4694 H         1 <0>         0.1592
     55 H20         0.7654   -1.2625   13.2722 H         1 <0>         0.1604
     56 H21         0.5228   -1.2905   10.8245 H         1 <0>         0.1397
     57 H22        -1.5764   -0.3774   -2.0745 H         1 <0>         0.1243
     58 H23        -3.1092   -0.4032   -1.1699 H         1 <0>         0.1265
     59 H24        -2.1014    1.0640   -1.1717 H         1 <0>         0.1268
     60 H25        -0.8290   -2.3425    0.8874 H         1 <0>         0.1211
     61 H26        -2.3788   -2.3587    0.0121 H         1 <0>         0.1281
     62 H27        -0.8460   -2.3329   -0.8924 H         1 <0>         0.1262
     63 H28        -1.8484   -0.1871    0.8426 H         1 <0>         0.4307
@<TRIPOS>BOND
     1    1    2 1
     2    1   37 1
     3    1   38 1
     4    1   39 1
     5    2    3 1
     6    2   34 1
     7    2   40 1
     8    3    4 1
     9    3   41 1
    10    3   42 1
    11    4    5 1
    12    5   10 ar
    13    5    6 ar
    14    6    7 ar
    15    7    8 ar
    16    7   43 1
    17    8    9 ar
    18    8   44 1
    19    9   10 ar
    20    9   11 1
    21   11   12 2
    22   11   16 1
    23   12   14 1
    24   13   16 1
    25   14   28 1
    26   14   15 2
    27   15   17 1
    28   15   16 1
    29   17   22 ar
    30   17   18 ar
    31   18   19 ar
    32   18   45 1
    33   19   20 ar
    34   19   46 1
    35   20   25 1
    36   20   21 ar
    37   21   22 ar
    38   21   23 1
    39   22   47 1
    40   23   24 1
    41   23   48 1
    42   23   49 1
    43   24   25 1
    44   24   50 1
    45   24   51 1
    46   25   26 2
    47   26   27 1
    48   27   52 1
    49   28   33 ar
    50   28   29 ar
    51   29   30 ar
    52   29   53 1
    53   30   31 ar
    54   30   54 1
    55   31   32 ar
    56   32   33 ar
    57   32   55 1
    58   33   56 1
    59   34   35 1
    60   34   36 1
    61   34   63 1
    62   35   57 1
    63   35   58 1
    64   35   59 1
    65   36   60 1
    66   36   61 1
    67   36   62 1
@<TRIPOS>MOLECULE
CHEMBL515491
   59    63     0     0     0
SMALL
USER_CHARGES

@<TRIPOS>ATOM
      1 C1         -0.0169    1.3915    0.0097 C.ar      1 <0>        -0.1073
      2 C2          1.1639    2.0949    0.0022 C.ar      1 <0>        -0.0665
      3 C3          2.3915    1.4159   -0.0137 C.ar      1 <0>        -0.0599
      4 C4          2.4071    0.0216   -0.0213 C.ar      1 <0>        -0.0606
      5 C5          1.2209   -0.6823   -0.0133 C.ar      1 <0>        -0.0812
      6 C6          0.0021   -0.0041    0.0020 C.ar      1 <0>         0.0146
      7 C7         -1.2693   -0.7632    0.0096 C.2       1 <0>         0.0740
      8 C8         -2.4420   -0.3943    0.6625 C.2       1 <0>         0.0585
      9 N1         -3.3549   -1.3781    0.4024 N.pl3     1 <0>        -0.5122
     10 H1         -4.2715   -1.4107    0.7181 H         1 <0>         0.4358
     11 C9         -2.7352   -2.3067   -0.3862 C.2       1 <0>         0.1685
     12 N2         -1.4988   -1.9228   -0.6139 N.2       1 <0>        -0.4264
     13 C10        -3.3563   -3.5403   -0.9034 C.2       1 <0>         0.6093
     14 O1         -4.5138   -3.7974   -0.6337 O.2       1 <0>        -0.5316
     15 N3         -2.6410   -4.3826   -1.6750 N.am      1 <0>        -0.7025
     16 C11        -3.2580   -5.6080   -2.1887 C.3       1 <0>         0.1224
     17 C12        -2.2380   -6.3789   -3.0290 C.3       1 <0>         0.0434
     18 N4         -2.8567   -7.6077   -3.5442 N.3       1 <0>        -0.5333
     19 C13        -3.1726   -8.5373   -2.4499 C.3       1 <0>         0.0108
     20 C14        -3.8680   -9.7747   -3.0235 C.3       1 <0>         0.0627
     21 O2         -3.0274  -10.3712   -4.0150 O.3       1 <0>        -0.3847
     22 C15        -2.7003   -9.4938   -5.0960 C.3       1 <0>         0.0626
     23 C16        -1.9931   -8.2535   -4.5434 C.3       1 <0>         0.0185
     24 C17        -2.6570    0.8188    1.4757 C.ar      1 <0>         0.0147
     25 C18        -1.7039    1.2350    2.4143 C.ar      1 <0>        -0.1385
     26 C19        -1.9460    2.3749    3.1520 C.ar      1 <0>         0.1079
     27 N5         -3.0554    3.0689    2.9830 N.ar      1 <0>        -0.4757
     28 C20        -3.9789    2.7127    2.1105 C.ar      1 <0>         0.1079
     29 C21        -3.8174    1.5896    1.3265 C.ar      1 <0>        -0.1614
     30 C22         3.8349   -0.4697   -0.0377 C.3       1 <0>        -0.0825
     31 C23         4.7231    0.7818   -0.0394 C.3       1 <0>        -0.1141
     32 C24         3.7677    1.9501   -0.0240 C.2       1 <0>         0.1717
     33 N6          4.0973    3.2015   -0.0211 N.2       1 <0>        -0.3232
     34 O3          5.4634    3.5739   -0.0321 O.3       1 <0>        -0.4049
     35 H2         -0.9593    1.9187    0.0260 H         1 <0>         0.1280
     36 H3          1.1467    3.1748    0.0082 H         1 <0>         0.1321
     37 H4          1.2359   -1.7622   -0.0196 H         1 <0>         0.1348
     38 H5         -1.7177   -4.1775   -1.8901 H         1 <0>         0.4141
     39 H6         -3.5840   -6.2282   -1.3538 H         1 <0>         0.0741
     40 H7         -4.1177   -5.3502   -2.8072 H         1 <0>         0.0843
     41 H8         -1.9120   -5.7587   -3.8640 H         1 <0>         0.0872
     42 H9         -1.3783   -6.6368   -2.4106 H         1 <0>         0.0465
     43 H10        -2.2518   -8.8365   -1.9493 H         1 <0>         0.0468
     44 H11        -3.8335   -8.0469   -1.7351 H         1 <0>         0.0906
     45 H12        -4.0528  -10.4919   -2.2238 H         1 <0>         0.1002
     46 H13        -4.8150   -9.4825   -3.4773 H         1 <0>         0.0620
     47 H14        -2.0406  -10.0078   -5.7951 H         1 <0>         0.1006
     48 H15        -3.6134   -9.1934   -5.6100 H         1 <0>         0.0618
     49 H16        -1.7930   -7.5560   -5.3567 H         1 <0>         0.0895
     50 H17        -1.0534   -8.5482   -4.0762 H         1 <0>         0.0464
     51 H18        -0.7937    0.6718    2.5582 H         1 <0>         0.1421
     52 H19        -1.2176    2.7039    3.8783 H         1 <0>         0.1635
     53 H20        -4.8719    3.3110    2.0061 H         1 <0>         0.1623
     54 H21        -4.5755    1.3064    0.6113 H         1 <0>         0.1362
     55 H22         4.0346   -1.0689    0.8507 H         1 <0>         0.0911
     56 H23         4.0175   -1.0593   -0.9361 H         1 <0>         0.0914
     57 H24         5.3541    0.7982    0.8492 H         1 <0>         0.0955
     58 H25         5.3370    0.8078   -0.9398 H         1 <0>         0.0953
     59 H26         5.6106    4.5296   -0.0289 H         1 <0>         0.4067
@<TRIPOS>BOND
     1    1    6 ar
     2    1    2 ar
     3    1   35 1
     4    2    3 ar
     5    2   36 1
     6    3   32 1
     7    3    4 ar
     8    4    5 ar
     9    4   30 1
    10    5    6 ar
    11    5   37 1
    12    6    7 1
    13    7   12 1
    14    7    8 2
    15    8    9 1
    16    8   24 1
    17    9   10 1
    18    9   11 1
    19   11   12 2
    20   11   13 1
    21   13   14 2
    22   13   15 am
    23   15   16 1
    24   15   38 1
    25   16   17 1
    26   16   39 1
    27   16   40 1
    28   17   18 1
    29   17   41 1
    30   17   42 1
    31   18   23 1
    32   18   19 1
    33   19   20 1
    34   19   43 1
    35   19   44 1
    36   20   21 1
    37   20   45 1
    38   20   46 1
    39   21   22 1
    40   22   23 1
    41   22   47 1
    42   22   48 1
    43   23   49 1
    44   23   50 1
    45   24   29 ar
    46   24   25 ar
    47   25   26 ar
    48   25   51 1
    49   26   27 ar
    50   26   52 1
    51   27   28 ar
    52   28   29 ar
    53   28   53 1
    54   29   54 1
    55   30   31 1
    56   30   55 1
    57   30   56 1
    58   31   32 1
    59   31   57 1
    60   31   58 1
    61   32   33 2
    62   33   34 1
    63   34   59 1
@<TRIPOS>MOLECULE
CHEMBL515491__1
   59    63     0     0     0
SMALL
USER_CHARGES

@<TRIPOS>ATOM
      1 C1          1.2277   -0.7909   -0.3212 C.ar      1 <0>        -0.1089
      2 C2          2.4182   -0.1279   -0.3841 C.ar      1 <0>        -0.0658
      3 C3          2.4611    1.2667   -0.2326 C.ar      1 <0>        -0.0506
      4 C4          1.2782    1.9735   -0.0170 C.ar      1 <0>        -0.0555
      5 C5          0.0831    1.3081    0.0465 C.ar      1 <0>        -0.0749
      6 C6          0.0429   -0.0805   -0.1050 C.ar      1 <0>        -0.0110
      7 C7         -1.2455   -0.7946   -0.0370 C.2       1 <0>         0.0726
      8 C8         -2.4250   -0.4516   -0.6933 C.2       1 <0>         0.0604
      9 N1         -3.3518   -1.3553   -0.3633 N.2       1 <0>        -0.4237
     10 H1         -0.8953   -2.4168    1.2396 H         1 <0>         0.4363
     11 C9         -2.8301   -2.2410    0.4561 C.2       1 <0>         0.1643
     12 N2         -1.5169   -1.9277    0.6780 N.pl3     1 <0>        -0.5132
     13 C10        -3.5444   -3.3913    1.0385 C.2       1 <0>         0.6094
     14 O1         -2.9630   -4.1517    1.7887 O.2       1 <0>        -0.5319
     15 N3         -4.8419   -3.6004    0.7397 N.am      1 <0>        -0.7030
     16 C11        -5.5518   -4.7437    1.3186 C.3       1 <0>         0.1225
     17 C12        -6.9989   -4.7502    0.8217 C.3       1 <0>         0.0434
     18 N4         -7.7108   -5.8966    1.4021 N.3       1 <0>        -0.5331
     19 C13        -7.1681   -7.1654    0.8951 C.3       1 <0>         0.0107
     20 C14        -7.8965   -8.3313    1.5690 C.3       1 <0>         0.0628
     21 O2         -9.3016   -8.2100    1.3317 O.3       1 <0>        -0.3847
     22 C15        -9.8634   -6.9862    1.8133 C.3       1 <0>         0.0627
     23 C16        -9.1549   -5.8067    1.1419 C.3       1 <0>         0.0184
     24 C17        -2.6176    0.7079   -1.5949 C.ar      1 <0>         0.0390
     25 C18        -1.6442    1.0544   -2.5380 C.ar      1 <0>        -0.1523
     26 C19        -1.8642    2.1416   -3.3576 C.ar      1 <0>         0.1025
     27 N5         -2.9731    2.8502   -3.2602 N.ar      1 <0>        -0.4819
     28 C20        -3.9160    2.5574   -2.3847 C.ar      1 <0>         0.1009
     29 C21        -3.7804    1.4829   -1.5307 C.ar      1 <0>        -0.1460
     30 C22         1.5839    3.4467    0.1125 C.3       1 <0>        -0.0839
     31 C23         3.1035    3.5888   -0.0470 C.3       1 <0>        -0.1136
     32 C24         3.6160    2.1857   -0.2631 C.2       1 <0>         0.1687
     33 N6          4.8520    1.8473   -0.4437 N.2       1 <0>        -0.3199
     34 O3          5.8636    2.8381   -0.4496 O.3       1 <0>        -0.4020
     35 H2          1.1997   -1.8637   -0.4429 H         1 <0>         0.1317
     36 H3          3.3321   -0.6788   -0.5508 H         1 <0>         0.1357
     37 H4         -0.8311    1.8582    0.2140 H         1 <0>         0.1327
     38 H5         -5.3056   -2.9939    0.1413 H         1 <0>         0.4138
     39 H6         -5.0597   -5.6680    1.0161 H         1 <0>         0.0739
     40 H7         -5.5413   -4.6653    2.4057 H         1 <0>         0.0844
     41 H8         -7.4910   -3.8259    1.1241 H         1 <0>         0.0872
     42 H9         -7.0094   -4.8286   -0.2655 H         1 <0>         0.0464
     43 H10        -7.3153   -7.2190   -0.1836 H         1 <0>         0.0467
     44 H11        -6.1033   -7.2220    1.1212 H         1 <0>         0.0906
     45 H12        -7.5373   -9.2732    1.1545 H         1 <0>         0.1002
     46 H13        -7.7053   -8.3086    2.6419 H         1 <0>         0.0621
     47 H14       -10.9267   -6.9553    1.5755 H         1 <0>         0.1006
     48 H15        -9.7294   -6.9243    2.8933 H         1 <0>         0.0618
     49 H16        -9.5404   -4.8715    1.5481 H         1 <0>         0.0895
     50 H17        -9.3338   -5.8386    0.0672 H         1 <0>         0.0464
     51 H18        -0.7339    0.4794   -2.6227 H         1 <0>         0.1340
     52 H19        -1.1186    2.4170   -4.0888 H         1 <0>         0.1576
     53 H20        -4.8080    3.1647   -2.3394 H         1 <0>         0.1588
     54 H21        -4.5582    1.2463   -0.8197 H         1 <0>         0.1387
     55 H22         1.0716    4.0054   -0.6708 H         1 <0>         0.0940
     56 H23         1.2753    3.8080    1.0934 H         1 <0>         0.0925
     57 H24         3.3359    4.2127   -0.9101 H         1 <0>         0.0975
     58 H25         3.5398    4.0151    0.8563 H         1 <0>         0.0966
     59 H26         6.7545    2.4897   -0.5914 H         1 <0>         0.4078
@<TRIPOS>BOND
     1    1    6 ar
     2    1    2 ar
     3    1   35 1
     4    2    3 ar
     5    2   36 1
     6    3   32 1
     7    3    4 ar
     8    4    5 ar
     9    4   30 1
    10    5    6 ar
    11    5   37 1
    12    6    7 1
    13    7    8 2
    14    7   12 1
    15    8    9 1
    16    8   24 1
    17    9   11 2
    18   10   12 1
    19   11   13 1
    20   11   12 1
    21   13   14 2
    22   13   15 am
    23   15   16 1
    24   15   38 1
    25   16   17 1
    26   16   39 1
    27   16   40 1
    28   17   18 1
    29   17   41 1
    30   17   42 1
    31   18   23 1
    32   18   19 1
    33   19   20 1
    34   19   43 1
    35   19   44 1
    36   20   21 1
    37   20   45 1
    38   20   46 1
    39   21   22 1
    40   22   23 1
    41   22   47 1
    42   22   48 1
    43   23   49 1
    44   23   50 1
    45   24   29 ar
    46   24   25 ar
    47   25   26 ar
    48   25   51 1
    49   26   27 ar
    50   26   52 1
    51   27   28 ar
    52   28   29 ar
    53   28   53 1
    54   29   54 1
    55   30   31 1
    56   30   55 1
    57   30   56 1
    58   31   32 1
    59   31   57 1
    60   31   58 1
    61   32   33 2
    62   33   34 1
    63   34   59 1
@<TRIPOS>MOLECULE
CHEMBL514210
   55    58     0     0     0
SMALL
USER_CHARGES

@<TRIPOS>ATOM
      1 C1         -0.5805    1.7797   -0.9481 C.3       1 <0>        -0.0565
      2 N1         -0.6527    0.3128   -0.9798 N.4       1 <0>        -0.3828
      3 C2         -2.0411   -0.1041   -1.2175 C.3       1 <0>        -0.0468
      4 C3          0.2032   -0.1964   -2.0597 C.3       1 <0>        -0.0236
      5 C4          1.6652    0.1303   -1.7487 C.3       1 <0>         0.0951
      6 N2          2.5188   -0.3775   -2.8257 N.am      1 <0>        -0.7272
      7 C5          3.8540   -0.2038   -2.7661 C.2       1 <0>         0.6188
      8 O1          4.3505    0.3749   -1.8177 O.2       1 <0>        -0.5002
      9 C6          4.7089   -0.7124   -3.8449 C.2       1 <0>        -0.0893
     10 C7          6.0673   -0.6049   -3.8979 C.2       1 <0>        -0.0793
     11 C8          6.4812   -1.2239   -5.0963 C.2       1 <0>        -0.1185
     12 C9          5.3296   -1.6836   -5.7199 C.2       1 <0>         0.0866
     13 O2          4.2802   -1.3674   -4.9426 O.3       1 <0>        -0.1521
     14 C10         5.2689   -2.3992   -7.0084 C.ar      1 <0>         0.0095
     15 C11         4.4980   -3.5607   -7.1520 C.ar      1 <0>        -0.1482
     16 C12         4.4701   -4.1970   -8.3753 C.ar      1 <0>         0.1062
     17 N3          5.1555   -3.7267   -9.3999 N.ar      1 <0>        -0.4690
     18 C13         5.8938   -2.6370   -9.3088 C.ar      1 <0>         0.1105
     19 C14         5.9758   -1.9335   -8.1253 C.ar      1 <0>        -0.1329
     20 C15         7.8708   -1.3566   -5.5915 C.ar      1 <0>        -0.0089
     21 C16         8.3845   -2.6165   -5.9040 C.ar      1 <0>        -0.1051
     22 C17         9.6739   -2.7382   -6.3629 C.ar      1 <0>        -0.0662
     23 C18        10.4794   -1.5998   -6.5199 C.ar      1 <0>        -0.0533
     24 C19         9.9633   -0.3431   -6.2073 C.ar      1 <0>        -0.0579
     25 C20         8.6664   -0.2227   -5.7518 C.ar      1 <0>        -0.0935
     26 C21        11.0131    0.7132   -6.4576 C.3       1 <0>        -0.0836
     27 C22        12.2578   -0.0261   -6.9669 C.3       1 <0>        -0.1145
     28 C23        11.8740   -1.4857   -6.9899 C.2       1 <0>         0.1662
     29 N4         12.6347   -2.4659   -7.3579 N.2       1 <0>        -0.3191
     30 O3         13.9593   -2.2110   -7.7887 O.3       1 <0>        -0.4009
     31 H1          0.4497    2.0890   -0.7717 H         1 <0>         0.1265
     32 H2         -0.9220    2.1810   -1.9023 H         1 <0>         0.1251
     33 H3         -1.2155    2.1575   -0.1468 H         1 <0>         0.1295
     34 H4         -2.3826    0.2972   -2.1717 H         1 <0>         0.1239
     35 H5         -2.0947   -1.1925   -1.2410 H         1 <0>         0.1253
     36 H6         -2.6761    0.2737   -0.4162 H         1 <0>         0.1287
     37 H7          0.0816   -1.2765   -2.1410 H         1 <0>         0.1399
     38 H8         -0.0817    0.2732   -3.0012 H         1 <0>         0.1388
     39 H9          1.7868    1.2104   -1.6674 H         1 <0>         0.0944
     40 H10         1.9501   -0.3393   -0.8073 H         1 <0>         0.0942
     41 H11         2.1230   -0.8388   -3.5816 H         1 <0>         0.4137
     42 H12         6.7045   -0.1354   -3.1631 H         1 <0>         0.1718
     43 H13         3.9347   -3.9516   -6.3175 H         1 <0>         0.1400
     44 H14         3.8794   -5.0930   -8.4961 H         1 <0>         0.1647
     45 H15         6.4380   -2.2886  -10.1741 H         1 <0>         0.1664
     46 H16         6.5785   -1.0398   -8.0592 H         1 <0>         0.1426
     47 H17         7.7685   -3.4955   -5.7848 H         1 <0>         0.1275
     48 H18        10.0693   -3.7141   -6.6033 H         1 <0>         0.1334
     49 H19         8.2678    0.7525   -5.5142 H         1 <0>         0.1316
     50 H20        10.6622    1.4182   -7.2112 H         1 <0>         0.0923
     51 H21        11.2432    1.2389   -5.5309 H         1 <0>         0.0924
     52 H22        12.5140    0.3129   -7.9706 H         1 <0>         0.0971
     53 H23        13.0957    0.1333   -6.2883 H         1 <0>         0.0969
     54 H24        14.4496   -3.0047   -8.0433 H         1 <0>         0.4089
     55 H25        -0.3365   -0.0586   -0.0966 H         1 <0>         0.4308
@<TRIPOS>BOND
     1    1    2 1
     2    1   31 1
     3    1   32 1
     4    1   33 1
     5    2    3 1
     6    2    4 1
     7    2   55 1
     8    3   34 1
     9    3   35 1
    10    3   36 1
    11    4    5 1
    12    4   37 1
    13    4   38 1
    14    5    6 1
    15    5   39 1
    16    5   40 1
    17    6    7 am
    18    6   41 1
    19    7    8 2
    20    7    9 1
    21    9   13 1
    22    9   10 2
    23   10   11 1
    24   10   42 1
    25   11   12 2
    26   11   20 1
    27   12   13 1
    28   12   14 1
    29   14   19 ar
    30   14   15 ar
    31   15   16 ar
    32   15   43 1
    33   16   17 ar
    34   16   44 1
    35   17   18 ar
    36   18   19 ar
    37   18   45 1
    38   19   46 1
    39   20   25 ar
    40   20   21 ar
    41   21   22 ar
    42   21   47 1
    43   22   23 ar
    44   22   48 1
    45   23   28 1
    46   23   24 ar
    47   24   25 ar
    48   24   26 1
    49   25   49 1
    50   26   27 1
    51   26   50 1
    52   26   51 1
    53   27   28 1
    54   27   52 1
    55   27   53 1
    56   28   29 2
    57   29   30 1
    58   30   54 1
@<TRIPOS>MOLECULE
CHEMBL476732
   52    56     0     0     0
SMALL
USER_CHARGES

@<TRIPOS>ATOM
      1 C1         -0.2970    1.5929   -0.1755 C.ar      1 <0>        -0.1086
      2 C2          0.8077    2.4049   -0.2705 C.ar      1 <0>        -0.0653
      3 C3          2.0913    1.8454   -0.3592 C.ar      1 <0>        -0.0641
      4 C4          2.2403    0.4589   -0.3498 C.ar      1 <0>        -0.0586
      5 C5          1.1305   -0.3543   -0.2540 C.ar      1 <0>        -0.0972
      6 C6         -0.1446    0.2053   -0.1665 C.ar      1 <0>         0.0072
      7 C7         -1.3336   -0.6708   -0.0648 C.2       1 <0>        -0.1113
      8 C8         -1.7088   -1.7059   -0.9608 C.2       1 <0>        -0.1848
      9 C9         -2.8483   -2.2409   -0.4892 C.2       1 <0>         0.0148
     10 O1         -3.2027   -1.6055    0.6387 O.3       1 <0>        -0.1488
     11 C10        -2.2990   -0.6490    0.9258 C.2       1 <0>         0.0371
     12 C11        -2.3341    0.2603    2.0859 C.ar      1 <0>         0.0272
     13 C12        -3.5149    0.9252    2.4451 C.ar      1 <0>        -0.1514
     14 C13        -3.5018    1.7662    3.5372 C.ar      1 <0>         0.1038
     15 N1         -2.3993    1.9486    4.2396 N.ar      1 <0>        -0.4771
     16 C14        -1.2664    1.3429    3.9366 C.ar      1 <0>         0.1055
     17 C15        -1.1892    0.4801    2.8644 C.ar      1 <0>        -0.1396
     18 C16        -3.6082   -3.3755   -1.1266 C.3       1 <0>         0.1299
     19 N2         -3.1207   -4.6534   -0.5907 N.3       1 <0>        -0.5350
     20 C17        -1.7301   -4.8998   -0.9989 C.3       1 <0>         0.0116
     21 C18        -1.2439   -6.2088   -0.3714 C.3       1 <0>         0.0637
     22 O2         -2.1186   -7.2716   -0.7599 O.3       1 <0>        -0.3841
     23 C19        -3.4810   -7.0648   -0.3775 C.3       1 <0>         0.0631
     24 C20        -3.9899   -5.7644   -1.0052 C.3       1 <0>         0.0182
     25 C21         3.7047    0.1053   -0.4547 C.3       1 <0>        -0.0827
     26 C22         4.4664    1.4354   -0.5316 C.3       1 <0>        -0.1139
     27 C23         3.4060    2.5076   -0.4678 C.2       1 <0>         0.1718
     28 N3          3.6133    3.7846   -0.5019 N.2       1 <0>        -0.3237
     29 O3          4.9337    4.2849   -0.6086 O.3       1 <0>        -0.4049
     30 H1         -1.2827    2.0284   -0.1034 H         1 <0>         0.1270
     31 H2          0.6872    3.4781   -0.2774 H         1 <0>         0.1307
     32 H3          1.2488   -1.4278   -0.2470 H         1 <0>         0.1302
     33 H4         -1.1793   -2.0063   -1.8529 H         1 <0>         0.1542
     34 H5         -4.4206    0.7811    1.8748 H         1 <0>         0.1397
     35 H6         -4.4062    2.2833    3.8218 H         1 <0>         0.1620
     36 H7         -0.3888    1.5223    4.5400 H         1 <0>         0.1619
     37 H8         -0.2601   -0.0159    2.6255 H         1 <0>         0.1386
     38 H9         -4.6705   -3.2705   -0.9060 H         1 <0>         0.0982
     39 H10        -3.4573   -3.3528   -2.2059 H         1 <0>         0.0742
     40 H11        -1.6775   -4.9752   -2.0850 H         1 <0>         0.0472
     41 H12        -1.1001   -4.0775   -0.6597 H         1 <0>         0.0910
     42 H13        -0.2329   -6.4247   -0.7170 H         1 <0>         0.1003
     43 H14        -1.2457   -6.1146    0.7145 H         1 <0>         0.0604
     44 H15        -4.0880   -7.8997   -0.7276 H         1 <0>         0.1017
     45 H16        -3.5479   -6.9954    0.7082 H         1 <0>         0.0615
     46 H17        -5.0094   -5.5732   -0.6704 H         1 <0>         0.0906
     47 H18        -3.9734   -5.8537   -2.0914 H         1 <0>         0.0484
     48 H19         4.0183   -0.4550    0.4261 H         1 <0>         0.0911
     49 H20         3.8844   -0.4814   -1.3555 H         1 <0>         0.0907
     50 H21         5.1492    1.5288    0.3129 H         1 <0>         0.0956
     51 H22         5.0151    1.5024   -1.4710 H         1 <0>         0.0953
     52 H23         4.9883    5.2502   -0.6266 H         1 <0>         0.4067
@<TRIPOS>BOND
     1    1    6 ar
     2    1    2 ar
     3    1   30 1
     4    2    3 ar
     5    2   31 1
     6    3   27 1
     7    3    4 ar
     8    4    5 ar
     9    4   25 1
    10    5    6 ar
    11    5   32 1
    12    6    7 1
    13    7   11 2
    14    7    8 1
    15    8    9 2
    16    8   33 1
    17    9   10 1
    18    9   18 1
    19   10   11 1
    20   11   12 1
    21   12   17 ar
    22   12   13 ar
    23   13   14 ar
    24   13   34 1
    25   14   15 ar
    26   14   35 1
    27   15   16 ar
    28   16   17 ar
    29   16   36 1
    30   17   37 1
    31   18   19 1
    32   18   38 1
    33   18   39 1
    34   19   24 1
    35   19   20 1
    36   20   21 1
    37   20   40 1
    38   20   41 1
    39   21   22 1
    40   21   42 1
    41   21   43 1
    42   22   23 1
    43   23   24 1
    44   23   44 1
    45   23   45 1
    46   24   46 1
    47   24   47 1
    48   25   26 1
    49   25   48 1
    50   25   49 1
    51   26   27 1
    52   26   50 1
    53   26   51 1
    54   27   28 2
    55   28   29 1
    56   29   52 1
@<TRIPOS>MOLECULE
CHEMBL476732__1
   53    57     0     0     0
SMALL
USER_CHARGES

@<TRIPOS>ATOM
      1 C1         -0.2970    1.5929   -0.1755 C.ar      1 <0>        -0.1025
      2 C2          0.8077    2.4049   -0.2705 C.ar      1 <0>        -0.0655
      3 C3          2.0913    1.8454   -0.3592 C.ar      1 <0>        -0.0468
      4 C4          2.2403    0.4589   -0.3498 C.ar      1 <0>        -0.0592
      5 C5          1.1305   -0.3543   -0.2540 C.ar      1 <0>        -0.0944
      6 C6         -0.1446    0.2053   -0.1665 C.ar      1 <0>        -0.0176
      7 C7         -1.3336   -0.6708   -0.0648 C.2       1 <0>        -0.1117
      8 C8         -1.7088   -1.7059   -0.9608 C.2       1 <0>        -0.1231
      9 C9         -2.8483   -2.2409   -0.4892 C.2       1 <0>        -0.1015
     10 O1         -3.2027   -1.6055    0.6387 O.3       1 <0>        -0.1511
     11 C10        -2.2990   -0.6490    0.9258 C.2       1 <0>         0.0951
     12 C11        -2.3341    0.2603    2.0859 C.ar      1 <0>        -0.0004
     13 C12        -3.5149    0.9252    2.4451 C.ar      1 <0>        -0.1451
     14 C13        -3.5018    1.7662    3.5372 C.ar      1 <0>         0.1092
     15 N1         -2.3993    1.9486    4.2396 N.ar      1 <0>        -0.4649
     16 C14        -1.2664    1.3429    3.9366 C.ar      1 <0>         0.1109
     17 C15        -1.1892    0.4801    2.8644 C.ar      1 <0>        -0.1328
     18 C16        -3.6082   -3.3755   -1.1266 C.3       1 <0>         0.0910
     19 N2         -3.1207   -4.6534   -0.5907 N.4       1 <0>        -0.3886
     20 C17        -1.7209   -4.8508   -0.9916 C.3       1 <0>        -0.0511
     21 C18        -1.2153   -6.1828   -0.4319 C.3       1 <0>         0.0380
     22 O2         -2.0519   -7.2415   -0.9062 O.3       1 <0>        -0.3553
     23 C19        -3.4307   -7.0820   -0.5609 C.3       1 <0>         0.0361
     24 C20        -3.9405   -5.7517   -1.1209 C.3       1 <0>        -0.0437
     25 C21         3.7047    0.1053   -0.4547 C.3       1 <0>        -0.0830
     26 C22         4.4664    1.4354   -0.5316 C.3       1 <0>        -0.1150
     27 C23         3.4060    2.5076   -0.4678 C.2       1 <0>         0.1613
     28 N3          3.6133    3.7846   -0.5019 N.2       1 <0>        -0.3149
     29 O3          4.9337    4.2849   -0.6086 O.3       1 <0>        -0.3983
     30 H1         -1.2827    2.0284   -0.1034 H         1 <0>         0.1279
     31 H2          0.6872    3.4781   -0.2774 H         1 <0>         0.1350
     32 H3          1.2488   -1.4278   -0.2470 H         1 <0>         0.1281
     33 H4         -1.1793   -2.0063   -1.8529 H         1 <0>         0.1686
     34 H5         -4.4206    0.7811    1.8748 H         1 <0>         0.1415
     35 H6         -4.4062    2.2833    3.8218 H         1 <0>         0.1673
     36 H7         -0.3888    1.5223    4.5400 H         1 <0>         0.1675
     37 H8         -0.2601   -0.0159    2.6255 H         1 <0>         0.1417
     38 H9         -4.6705   -3.2705   -0.9060 H         1 <0>         0.1496
     39 H10        -3.4573   -3.3528   -2.2059 H         1 <0>         0.1593
     40 H11        -1.6526   -4.8641   -2.0794 H         1 <0>         0.1426
     41 H12        -1.1119   -4.0367   -0.5987 H         1 <0>         0.1413
     42 H13        -0.1909   -6.3517   -0.7638 H         1 <0>         0.1431
     43 H14        -1.2458   -6.1549    0.6574 H         1 <0>         0.0808
     44 H15        -4.0097   -7.9017   -0.9863 H         1 <0>         0.1443
     45 H16        -3.5370   -7.0849    0.5239 H         1 <0>         0.0817
     46 H17        -4.9791   -5.6062   -0.8239 H         1 <0>         0.1454
     47 H18        -3.8713   -5.7646   -2.2086 H         1 <0>         0.1428
     48 H19         4.0183   -0.4550    0.4261 H         1 <0>         0.0925
     49 H20         3.8844   -0.4814   -1.3555 H         1 <0>         0.0920
     50 H21         5.1492    1.5288    0.3129 H         1 <0>         0.0980
     51 H22         5.0151    1.5024   -1.4710 H         1 <0>         0.0977
     52 H23         4.9883    5.2502   -0.6266 H         1 <0>         0.4107
     53 H24        -3.1841   -4.6421    0.4162 H         1 <0>         0.4255
@<TRIPOS>BOND
     1    1    6 ar
     2    1    2 ar
     3    1   30 1
     4    2    3 ar
     5    2   31 1
     6    3   27 1
     7    3    4 ar
     8    4    5 ar
     9    4   25 1
    10    5    6 ar
    11    5   32 1
    12    6    7 1
    13    7   11 2
    14    7    8 1
    15    8    9 2
    16    8   33 1
    17    9   10 1
    18    9   18 1
    19   10   11 1
    20   11   12 1
    21   12   17 ar
    22   12   13 ar
    23   13   14 ar
    24   13   34 1
    25   14   15 ar
    26   14   35 1
    27   15   16 ar
    28   16   17 ar
    29   16   36 1
    30   17   37 1
    31   18   19 1
    32   18   38 1
    33   18   39 1
    34   19   24 1
    35   19   20 1
    36   19   53 1
    37   20   21 1
    38   20   40 1
    39   20   41 1
    40   21   22 1
    41   21   42 1
    42   21   43 1
    43   22   23 1
    44   23   24 1
    45   23   44 1
    46   23   45 1
    47   24   46 1
    48   24   47 1
    49   25   26 1
    50   25   48 1
    51   25   49 1
    52   26   27 1
    53   26   50 1
    54   26   51 1
    55   27   28 2
    56   28   29 1
    57   29   52 1
@<TRIPOS>MOLECULE
CHEMBL477565
   53    56     0     0     0
SMALL
NO_CHARGES

@<TRIPOS>ATOM
      1 C1         -0.0178    1.4648    0.0101 C.3       1 <0>        -0.0531
      2 N1          0.0021   -0.0041    0.0020 N.4       1 <0>        -0.3876
      3 C2          0.6897   -0.4778   -1.2066 C.3       1 <0>        -0.0458
      4 C3          0.7126   -0.4907    1.1921 C.3       1 <0>        -0.0028
      5 C4         -0.0711   -0.1034    2.4478 C.3       1 <0>         0.0384
      6 O1         -1.3280   -0.7834    2.4535 O.3       1 <0>        -0.3225
      7 C5         -2.1486   -0.5491    3.5041 C.2       1 <0>         0.2880
      8 C6         -3.4659   -1.1602    3.6785 C.2       1 <0>        -0.2642
      9 C7         -4.0148   -0.7129    4.8263 C.2       1 <0>        -0.1317
     10 C8         -3.0021    0.2367    5.4271 C.3       1 <0>         0.1555
     11 N2         -1.8681    0.2447    4.4948 N.2       1 <0>        -0.6145
     12 H1         -2.6811   -0.1236    6.4045 H         1 <0>         0.0872
     13 C9         -3.5918    1.6181    5.5497 C.ar      1 <0>         0.0018
     14 C10        -3.6608    2.4604    4.4506 C.ar      1 <0>        -0.1560
     15 C11        -4.2082    3.7205    4.6011 C.ar      1 <0>         0.0876
     16 N3         -4.6608    4.1238    5.7721 N.ar      1 <0>        -0.4967
     17 C12        -4.6114    3.3498    6.8386 C.ar      1 <0>         0.0962
     18 C13        -4.0834    2.0748    6.7630 C.ar      1 <0>        -0.1664
     19 C14        -5.3293   -1.0741    5.3802 C.ar      1 <0>        -0.0561
     20 C15        -6.3332   -0.1056    5.4942 C.ar      1 <0>        -0.1318
     21 C16        -7.5504   -0.4434    6.0080 C.ar      1 <0>        -0.0688
     22 C17        -7.8033   -1.7600    6.4244 C.ar      1 <0>        -0.1584
     23 C18        -6.8021   -2.7239    6.3102 C.ar      1 <0>        -0.0676
     24 C19        -5.5812   -2.3871    5.7890 C.ar      1 <0>        -0.1225
     25 C20        -7.3138   -4.0500    6.8204 C.3       1 <0>        -0.0755
     26 C21        -8.7607   -3.8106    7.2720 C.3       1 <0>        -0.1097
     27 C22        -9.0270   -2.3495    7.0031 C.2       1 <0>         0.1795
     28 N4        -10.1343   -1.7228    7.2389 N.2       1 <0>        -0.3701
     29 O2        -11.2345   -2.4159    7.7996 O.3       1 <0>        -0.4292
     30 H2          1.0047    1.8421    0.0024 H         1 <0>         0.1203
     31 H3         -0.5450    1.8259   -0.8730 H         1 <0>         0.1229
     32 H4         -0.5280    1.8163    0.9069 H         1 <0>         0.1250
     33 H5          1.7123   -0.1005   -1.2143 H         1 <0>         0.1190
     34 H6          0.7044   -1.5677   -1.2126 H         1 <0>         0.1219
     35 H7          0.1625   -0.1167   -2.0897 H         1 <0>         0.1216
     36 H8          0.8051   -1.5756    1.1418 H         1 <0>         0.1370
     37 H9          1.7055   -0.0428    1.2310 H         1 <0>         0.1414
     38 H10         0.4987   -0.3857    3.3332 H         1 <0>         0.1024
     39 H11        -0.2405    0.9733    2.4528 H         1 <0>         0.0819
     40 H12        -3.9265   -1.8589    2.9958 H         1 <0>         0.1137
     41 H13        -3.2911    2.1361    3.4890 H         1 <0>         0.1190
     42 H14        -4.2656    4.3826    3.7498 H         1 <0>         0.1449
     43 H15        -4.9918    3.7150    7.7812 H         1 <0>         0.1507
     44 H16        -4.0503    1.4438    7.6389 H         1 <0>         0.1296
     45 H17        -6.1439    0.9089    5.1757 H         1 <0>         0.0998
     46 H18        -8.3235    0.3057    6.0953 H         1 <0>         0.1031
     47 H19        -4.8094   -3.1370    5.6974 H         1 <0>         0.1028
     48 H20        -7.2887   -4.7925    6.0229 H         1 <0>         0.0744
     49 H21        -6.7093   -4.3850    7.6633 H         1 <0>         0.0748
     50 H22        -9.4445   -4.4318    6.6934 H         1 <0>         0.0813
     51 H23        -8.8644   -4.0237    8.3359 H         1 <0>         0.0814
     52 H24       -12.0167   -1.8647    7.9393 H         1 <0>         0.3939
     53 H25        -0.9445   -0.3533    0.0092 H         1 <0>         0.4342
@<TRIPOS>BOND
     1    1    2 1
     2    1   30 1
     3    1   31 1
     4    1   32 1
     5    2    3 1
     6    2    4 1
     7    2   53 1
     8    3   33 1
     9    3   34 1
    10    3   35 1
    11    4    5 1
    12    4   36 1
    13    4   37 1
    14    5   38 1
    15    5   39 1
    16    5    6 1
    17    6    7 1
    18    7   11 2
    19    7    8 1
    20    8   40 1
    21    8    9 2
    22    9   10 1
    23    9   19 1
    24   10   13 1
    25   10   12 1
    26   10   11 1
    27   13   18 ar
    28   13   14 ar
    29   14   15 ar
    30   14   41 1
    31   15   16 ar
    32   15   42 1
    33   16   17 ar
    34   17   18 ar
    35   17   43 1
    36   18   44 1
    37   19   24 ar
    38   19   20 ar
    39   20   21 ar
    40   20   45 1
    41   21   22 ar
    42   21   46 1
    43   22   27 1
    44   22   23 ar
    45   23   24 ar
    46   23   25 1
    47   24   47 1
    48   25   26 1
    49   25   48 1
    50   25   49 1
    51   26   27 1
    52   26   50 1
    53   26   51 1
    54   27   28 2
    55   28   29 1
    56   29   52 1
@<TRIPOS>MOLECULE
CHEMBL477565__1
   53    56     0     0     0
SMALL
USER_CHARGES

@<TRIPOS>ATOM
      1 C1         -0.0178    1.4648    0.0101 C.3       1 <0>        -0.0544
      2 N1          0.0021   -0.0041    0.0020 N.4       1 <0>        -0.3891
      3 C2          0.7126   -0.4907    1.1921 C.3       1 <0>        -0.0476
      4 C3         -1.3761   -0.5125    0.0124 C.3       1 <0>         0.0015
      5 C4         -2.0780   -0.1101   -1.2861 C.3       1 <0>         0.0160
      6 O1         -1.4443   -0.7583   -2.3908 O.3       1 <0>        -0.3011
      7 C5         -1.9490   -0.5065   -3.6252 C.2       1 <0>         0.2050
      8 C6         -1.4872   -1.0302   -4.7856 C.2       1 <0>        -0.1712
      9 C7         -2.2840   -0.5176   -5.8355 C.2       1 <0>        -0.0659
     10 C8         -3.2241    0.3203   -5.2551 C.2       1 <0>         0.0688
     11 N2         -3.0067    0.3100   -3.8967 N.pl3     1 <0>        -0.5714
     12 H1         -3.5204    0.8051   -3.2395 H         1 <0>         0.4149
     13 C9         -4.2696    1.0792   -5.9639 C.ar      1 <0>         0.0162
     14 C10        -3.9761    1.7865   -7.1389 C.ar      1 <0>        -0.1418
     15 C11        -4.9851    2.4820   -7.7687 C.ar      1 <0>         0.1101
     16 N3         -6.2119    2.4881   -7.2810 N.ar      1 <0>        -0.4769
     17 C12        -6.5319    1.8364   -6.1782 C.ar      1 <0>         0.1074
     18 C13        -5.5878    1.1099   -5.4859 C.ar      1 <0>        -0.1700
     19 C14        -2.1414   -0.8177   -7.2780 C.ar      1 <0>         0.0010
     20 C15        -3.2562   -1.2014   -8.0263 C.ar      1 <0>        -0.1079
     21 C16        -3.1224   -1.4796   -9.3650 C.ar      1 <0>        -0.0665
     22 C17        -1.8678   -1.3800   -9.9864 C.ar      1 <0>        -0.0584
     23 C18        -0.7568   -0.9963   -9.2368 C.ar      1 <0>        -0.0594
     24 C19        -0.8942   -0.7123   -7.8938 C.ar      1 <0>        -0.0967
     25 C20         0.4658   -0.9625  -10.1225 C.3       1 <0>        -0.0827
     26 C21        -0.0046   -1.3713  -11.5249 C.3       1 <0>        -0.1149
     27 C22        -1.4864   -1.6256  -11.3910 C.2       1 <0>         0.1668
     28 N4         -2.2832   -1.9952  -12.3416 N.2       1 <0>        -0.3206
     29 O2         -1.7796   -2.1954  -13.6498 O.3       1 <0>        -0.4022
     30 H2          1.0047    1.8421    0.0024 H         1 <0>         0.1294
     31 H3         -0.5450    1.8259   -0.8730 H         1 <0>         0.1192
     32 H4         -0.5280    1.8163    0.9069 H         1 <0>         0.1251
     33 H5          0.2024   -0.1392    2.0889 H         1 <0>         0.1235
     34 H6          0.7273   -1.5806    1.1861 H         1 <0>         0.1261
     35 H7          1.7352   -0.1134    1.1844 H         1 <0>         0.1274
     36 H8         -1.3618   -1.5992    0.0961 H         1 <0>         0.1460
     37 H9         -1.9129   -0.0898    0.8617 H         1 <0>         0.1514
     38 H10        -3.1251   -0.4096   -1.2410 H         1 <0>         0.1067
     39 H11        -2.0144    0.9705   -1.4137 H         1 <0>         0.0847
     40 H12        -0.6595   -1.7160   -4.8904 H         1 <0>         0.1549
     41 H13        -2.9748    1.7863   -7.5435 H         1 <0>         0.1400
     42 H14        -4.7692    3.0301   -8.6739 H         1 <0>         0.1623
     43 H15        -7.5489    1.8697   -5.8161 H         1 <0>         0.1602
     44 H16        -5.8578    0.5755   -4.5870 H         1 <0>         0.1308
     45 H17        -4.2236   -1.2797   -7.5526 H         1 <0>         0.1255
     46 H18        -3.9860   -1.7764   -9.9416 H         1 <0>         0.1309
     47 H19        -0.0326   -0.4113   -7.3163 H         1 <0>         0.1296
     48 H20         0.8828    0.0443  -10.1465 H         1 <0>         0.0908
     49 H21         1.2119   -1.6684   -9.7576 H         1 <0>         0.0907
     50 H22         0.1774   -0.5642  -12.2345 H         1 <0>         0.0962
     51 H23         0.5069   -2.2790  -11.8451 H         1 <0>         0.0960
     52 H24        -2.4491   -2.4702  -14.2911 H         1 <0>         0.4086
     53 H25         0.4743   -0.3295   -0.8281 H         1 <0>         0.4351
@<TRIPOS>BOND
     1    1    2 1
     2    1   30 1
     3    1   31 1
     4    1   32 1
     5    2    3 1
     6    2    4 1
     7    2   53 1
     8    3   33 1
     9    3   34 1
    10    3   35 1
    11    4    5 1
    12    4   36 1
    13    4   37 1
    14    5    6 1
    15    5   38 1
    16    5   39 1
    17    6    7 1
    18    7   11 1
    19    7    8 2
    20    8    9 1
    21    8   40 1
    22    9   10 2
    23    9   19 1
    24   10   11 1
    25   10   13 1
    26   11   12 1
    27   13   18 ar
    28   13   14 ar
    29   14   15 ar
    30   14   41 1
    31   15   16 ar
    32   15   42 1
    33   16   17 ar
    34   17   18 ar
    35   17   43 1
    36   18   44 1
    37   19   24 ar
    38   19   20 ar
    39   20   21 ar
    40   20   45 1
    41   21   22 ar
    42   21   46 1
    43   22   27 1
    44   22   23 ar
    45   23   24 ar
    46   23   25 1
    47   24   47 1
    48   25   26 1
    49   25   48 1
    50   25   49 1
    51   26   27 1
    52   26   50 1
    53   26   51 1
    54   27   28 2
    55   28   29 1
    56   29   52 1
@<TRIPOS>MOLECULE
CHEMBL572881
   51    54     0     0     0
SMALL
USER_CHARGES

@<TRIPOS>ATOM
      1 C1          0.7468    1.4716   -0.2962 C.3       1 <0>        -0.1359
      2 C2         -0.0126    0.2109    0.1219 C.3       1 <0>        -0.0259
      3 C3         -1.3841    0.5810    0.7097 C.3       1 <0>         0.1241
      4 N1         -1.3578    0.0858    2.0884 N.pl3     1 <0>        -0.7443
      5 C4         -0.1308   -0.5237    2.3558 C.ar      1 <0>         0.2168
      6 C5          0.7087   -0.4891    1.2521 C.ar      1 <0>        -0.1719
      7 C6          1.9737   -1.0422    1.3132 C.ar      1 <0>        -0.0383
      8 C7          2.4173   -1.6377    2.4780 C.ar      1 <0>        -0.1686
      9 C8          1.5867   -1.6793    3.5908 C.ar      1 <0>         0.1899
     10 C9          0.3188   -1.1248    3.5317 C.ar      1 <0>        -0.2101
     11 N2          2.0314   -2.2815    4.7721 N.am      1 <0>        -0.6658
     12 C10         3.3340   -2.2177    5.1121 C.2       1 <0>         0.5798
     13 O1          4.1056   -1.5583    4.4423 O.2       1 <0>        -0.5258
     14 C11         3.8233   -2.9473    6.2957 C.ar      1 <0>        -0.2731
     15 C12         2.9747   -3.8049    7.0055 C.ar      1 <0>         0.0067
     16 C13         3.4823   -4.4663    8.1093 C.ar      1 <0>        -0.2465
     17 C14         4.8007   -4.2646    8.4781 C.ar      1 <0>         0.1892
     18 N3          5.5844   -3.4525    7.7964 N.ar      1 <0>        -0.5474
     19 C15         5.1519   -2.7990    6.7289 C.ar      1 <0>         0.4589
     20 N4          6.0106   -1.9622    6.0402 N.pl3     1 <0>        -0.6963
     21 C16         7.3594   -1.7126    6.5545 C.3       1 <0>         0.1647
     22 C17         8.0854   -0.7738    5.6257 C.ar      1 <0>        -0.0637
     23 C18         8.8316   -1.2620    4.5640 C.ar      1 <0>        -0.1529
     24 C19         9.4839   -0.3708    3.7331 C.ar      1 <0>         0.0988
     25 N5          9.4026    0.9288    3.9414 N.ar      1 <0>        -0.4794
     26 C20         8.7024    1.4285    4.9408 C.ar      1 <0>         0.0990
     27 C21         8.0184    0.5989    5.8091 C.ar      1 <0>        -0.1529
     28 C22        -0.1773   -0.7323   -1.0715 C.3       1 <0>        -0.1351
     29 H1          1.7482    1.1988   -0.6294 H         1 <0>         0.0615
     30 H2          0.2143    1.9632   -1.1104 H         1 <0>         0.0602
     31 H3          0.8190    2.1508    0.5532 H         1 <0>         0.0571
     32 H4         -1.5207    1.6624    0.6988 H         1 <0>         0.0684
     33 H5         -2.1804    0.0929    0.1478 H         1 <0>         0.0687
     34 H6         -2.0866    0.1697    2.7230 H         1 <0>         0.4116
     35 H7          2.6177   -1.0092    0.4468 H         1 <0>         0.1223
     36 H8          3.4061   -2.0696    2.5233 H         1 <0>         0.1332
     37 H9         -0.3243   -1.1585    4.3988 H         1 <0>         0.1199
     38 H10         1.4023   -2.7451    5.3467 H         1 <0>         0.4099
     39 H11         1.9488   -3.9465    6.6991 H         1 <0>         0.1351
     40 H12         2.8542   -5.1349    8.6793 H         1 <0>         0.1402
     41 H13         5.1949   -4.7817    9.3404 H         1 <0>         0.1633
     42 H14         5.7198   -1.5404    5.2165 H         1 <0>         0.4273
     43 H15         7.2931   -1.2639    7.5456 H         1 <0>         0.0786
     44 H16         7.9042   -2.6545    6.6178 H         1 <0>         0.0816
     45 H17         8.9026   -2.3254    4.3887 H         1 <0>         0.1365
     46 H18        10.0672   -0.7431    2.9039 H         1 <0>         0.1584
     47 H19         8.6595    2.4986    5.0799 H         1 <0>         0.1581
     48 H20         7.4425    1.0143    6.6228 H         1 <0>         0.1358
     49 H21         0.8053   -1.0276   -1.4395 H         1 <0>         0.0614
     50 H22        -0.7302   -1.6186   -0.7605 H         1 <0>         0.0571
     51 H23        -0.7242   -0.2225   -1.8647 H         1 <0>         0.0600
@<TRIPOS>BOND
     1    1    2 1
     2    1   29 1
     3    1   30 1
     4    1   31 1
     5    2    6 1
     6    2    3 1
     7    2   28 1
     8    3    4 1
     9    3   32 1
    10    3   33 1
    11    4    5 1
    12    4   34 1
    13    5   10 ar
    14    5    6 ar
    15    6    7 ar
    16    7    8 ar
    17    7   35 1
    18    8    9 ar
    19    8   36 1
    20    9   10 ar
    21    9   11 1
    22   10   37 1
    23   11   12 am
    24   11   38 1
    25   12   13 2
    26   12   14 1
    27   14   19 ar
    28   14   15 ar
    29   15   16 ar
    30   15   39 1
    31   16   17 ar
    32   16   40 1
    33   17   18 ar
    34   17   41 1
    35   18   19 ar
    36   19   20 1
    37   20   21 1
    38   20   42 1
    39   21   22 1
    40   21   43 1
    41   21   44 1
    42   22   27 ar
    43   22   23 ar
    44   23   24 ar
    45   23   45 1
    46   24   25 ar
    47   24   46 1
    48   25   26 ar
    49   26   27 ar
    50   26   47 1
    51   27   48 1
    52   28   49 1
    53   28   50 1
    54   28   51 1
@<TRIPOS>MOLECULE
CHEMBL200863
   57    60     0     0     0
SMALL
USER_CHARGES

@<TRIPOS>ATOM
      1 C1         -0.5622    0.6755    0.1711 C.3       1 <0>        -0.1503
      2 C2         -0.1354   -0.7618   -0.1337 C.3       1 <0>         0.0098
      3 C3          0.6411   -1.3267    1.0575 C.3       1 <0>        -0.1449
      4 C4         -1.3767   -1.6198   -0.3865 C.3       1 <0>         0.1614
      5 N1         -2.2305   -1.6060    0.8039 N.am      1 <0>        -0.7399
      6 C5         -3.3872   -2.2977    0.8116 C.2       1 <0>         0.7052
      7 O1         -3.7220   -2.9333   -0.1694 O.2       1 <0>        -0.5637
      8 N2         -4.1727   -2.2850    1.9067 N.am      1 <0>        -0.6866
      9 C6         -5.4206   -2.9191    1.8804 C.ar      1 <0>         0.1677
     10 C7         -6.4925   -2.3739    2.5746 C.ar      1 <0>        -0.1351
     11 C8         -7.7225   -3.0014    2.5471 C.ar      1 <0>        -0.0910
     12 C9         -7.8872   -4.1726    1.8286 C.ar      1 <0>        -0.0509
     13 C10        -6.8205   -4.7182    1.1364 C.ar      1 <0>        -0.0906
     14 C11        -5.5900   -4.0913    1.1556 C.ar      1 <0>        -0.1068
     15 Cl1        -9.4346   -4.9589    1.7961 Cl        1 <0>        -0.0701
     16 C12         0.7430   -0.7760   -1.3582 C.2       1 <0>         0.2411
     17 N3          1.7599    0.0792   -1.5969 N.pl3     1 <0>        -0.5470
     18 H1          2.0509    0.8015   -1.0185 H         1 <0>         0.4233
     19 C13         2.3079   -0.2633   -2.8122 C.2       1 <0>         0.0263
     20 C14         1.5779   -1.3444   -3.2728 C.2       1 <0>         0.0749
     21 N4          0.6409   -1.6198   -2.3472 N.2       1 <0>        -0.4596
     22 C15         1.7923   -2.0691   -4.5471 C.ar      1 <0>         0.0142
     23 C16         3.0863   -2.3747   -4.9689 C.ar      1 <0>        -0.0974
     24 C17         3.2833   -3.0497   -6.1563 C.ar      1 <0>        -0.0936
     25 C18         2.2001   -3.4247   -6.9312 C.ar      1 <0>        -0.0594
     26 C19         0.9083   -3.1237   -6.5185 C.ar      1 <0>         0.1192
     27 C20         0.7012   -2.4525   -5.3252 C.ar      1 <0>        -0.1038
     28 O2         -0.1529   -3.4935   -7.2831 O.3       1 <0>        -0.4854
     29 Cl2         2.4562   -4.2731   -8.4240 Cl        1 <0>        -0.0542
     30 C21         3.4451    0.3910   -3.4878 C.ar      1 <0>         0.0254
     31 C22         3.3822    0.7202   -4.8484 C.ar      1 <0>        -0.1435
     32 C23         4.4681    1.3306   -5.4387 C.ar      1 <0>         0.1086
     33 N5          5.5544    1.6044   -4.7408 N.ar      1 <0>        -0.4792
     34 C24         5.6558    1.3116   -3.4578 C.ar      1 <0>         0.1064
     35 C25         4.6161    0.7057   -2.7853 C.ar      1 <0>        -0.1664
     36 H2          0.3221    1.2867    0.3512 H         1 <0>         0.0598
     37 H3         -1.1154    1.0779   -0.6775 H         1 <0>         0.0691
     38 H4         -1.1975    0.6857    1.0568 H         1 <0>         0.0732
     39 H5          0.0058   -1.3164    1.9431 H         1 <0>         0.0702
     40 H6          0.9452   -2.3507    0.8403 H         1 <0>         0.0703
     41 H7          1.5254   -0.7155    1.2376 H         1 <0>         0.0611
     42 H8         -1.9299   -1.2173   -1.2351 H         1 <0>         0.0781
     43 H9         -1.0726   -2.6437   -0.6036 H         1 <0>         0.0865
     44 H10        -1.9634   -1.0990    1.5865 H         1 <0>         0.3960
     45 H11        -3.8735   -1.8365    2.7130 H         1 <0>         0.4080
     46 H12        -6.3644   -1.4601    3.1358 H         1 <0>         0.1344
     47 H13        -8.5565   -2.5779    3.0871 H         1 <0>         0.1375
     48 H14        -6.9515   -5.6326    0.5767 H         1 <0>         0.1371
     49 H15        -4.7590   -4.5150    0.6112 H         1 <0>         0.1506
     50 H16         3.9338   -2.0828   -4.3665 H         1 <0>         0.1306
     51 H17         4.2857   -3.2857   -6.4817 H         1 <0>         0.1404
     52 H18        -0.3028   -2.2221   -5.0007 H         1 <0>         0.1433
     53 H19        -0.5018   -4.3707   -7.0738 H         1 <0>         0.3956
     54 H20         2.4967    0.4989   -5.4257 H         1 <0>         0.1391
     55 H21         4.4296    1.5880   -6.4869 H         1 <0>         0.1621
     56 H22         6.5643    1.5539   -2.9264 H         1 <0>         0.1600
     57 H23         4.7042    0.4735   -1.7343 H         1 <0>         0.1332
@<TRIPOS>BOND
     1    1    2 1
     2    1   36 1
     3    1   37 1
     4    1   38 1
     5    2    3 1
     6    2    4 1
     7    2   16 1
     8    3   39 1
     9    3   40 1
    10    3   41 1
    11    4    5 1
    12    4   42 1
    13    4   43 1
    14    5    6 am
    15    5   44 1
    16    6    7 2
    17    6    8 am
    18    8    9 1
    19    8   45 1
    20    9   14 ar
    21    9   10 ar
    22   10   11 ar
    23   10   46 1
    24   11   12 ar
    25   11   47 1
    26   12   13 ar
    27   12   15 1
    28   13   14 ar
    29   13   48 1
    30   14   49 1
    31   16   21 2
    32   16   17 1
    33   17   18 1
    34   17   19 1
    35   19   20 2
    36   19   30 1
    37   20   21 1
    38   20   22 1
    39   22   27 ar
    40   22   23 ar
    41   23   24 ar
    42   23   50 1
    43   24   25 ar
    44   24   51 1
    45   25   26 ar
    46   25   29 1
    47   26   27 ar
    48   26   28 1
    49   27   52 1
    50   28   53 1
    51   30   35 ar
    52   30   31 ar
    53   31   32 ar
    54   31   54 1
    55   32   33 ar
    56   32   55 1
    57   33   34 ar
    58   34   35 ar
    59   34   56 1
    60   35   57 1
@<TRIPOS>MOLECULE
CHEMBL200863__1
   57    60     0     0     0
SMALL
USER_CHARGES

@<TRIPOS>ATOM
      1 C1         -0.0056    1.5147    0.0247 C.3       1 <0>        -0.1505
      2 C2          0.0065   -0.0151    0.0092 C.3       1 <0>         0.0105
      3 C3          0.7413   -0.5318    1.2477 C.3       1 <0>        -0.1449
      4 C4         -1.4319   -0.5366    0.0150 C.3       1 <0>         0.1615
      5 N1         -2.1171   -0.0659    1.2213 N.am      1 <0>        -0.7398
      6 C5         -3.4031   -0.4039    1.4411 C.2       1 <0>         0.7050
      7 O1         -3.9946   -1.0996    0.6382 O.2       1 <0>        -0.5636
      8 N2         -4.0336    0.0292    2.5508 N.am      1 <0>        -0.6865
      9 C6         -5.3954   -0.2401    2.7324 C.ar      1 <0>         0.1678
     10 C7         -6.2115    0.6932    3.3577 C.ar      1 <0>        -0.1354
     11 C8         -7.5546    0.4252    3.5357 C.ar      1 <0>        -0.0910
     12 C9         -8.0872   -0.7723    3.0915 C.ar      1 <0>        -0.0511
     13 C10        -7.2759   -1.7043    2.4684 C.ar      1 <0>        -0.0905
     14 C11        -5.9334   -1.4385    2.2824 C.ar      1 <0>        -0.1070
     15 Cl1        -9.7758   -1.1062    3.3167 Cl        1 <0>        -0.0701
     16 C12         0.7114   -0.4994   -1.2316 C.2       1 <0>         0.2397
     17 N3          0.2908   -1.4548   -2.0119 N.2       1 <0>        -0.4557
     18 H1          2.4028    0.7142   -1.3249 H         1 <0>         0.4238
     19 C13         1.1622   -1.6266   -3.0242 C.2       1 <0>         0.0638
     20 C14         2.1861   -0.7128   -2.8503 C.2       1 <0>         0.0391
     21 N4          1.8795   -0.0044   -1.7131 N.pl3     1 <0>        -0.5506
     22 C15         3.3688   -0.5312   -3.7160 C.ar      1 <0>        -0.0021
     23 C16         4.0795   -1.6431   -4.1737 C.ar      1 <0>        -0.0849
     24 C17         5.1835   -1.4699   -4.9826 C.ar      1 <0>        -0.0889
     25 C18         5.5899   -0.1970   -5.3426 C.ar      1 <0>        -0.0565
     26 C19         4.8892    0.9148   -4.8915 C.ar      1 <0>         0.1230
     27 C20         3.7767    0.7518   -4.0842 C.ar      1 <0>        -0.1244
     28 O2          5.2930    2.1628   -5.2478 O.3       1 <0>        -0.4848
     29 Cl2         6.9803    0.0115   -6.3609 Cl        1 <0>        -0.0476
     30 C21         1.0460   -2.6131   -4.1218 C.ar      1 <0>         0.0391
     31 C22         1.4942   -2.3091   -5.4123 C.ar      1 <0>        -0.1588
     32 C23         1.3666   -3.2575   -6.4050 C.ar      1 <0>         0.1013
     33 N5          0.8306   -4.4365   -6.1510 N.ar      1 <0>        -0.4834
     34 C24         0.3955   -4.7635   -4.9487 C.ar      1 <0>         0.1010
     35 C25         0.4901   -3.8775   -3.8963 C.ar      1 <0>        -0.1449
     36 H2          1.0191    1.8863    0.0205 H         1 <0>         0.0601
     37 H3         -0.5291    1.8829   -0.8577 H         1 <0>         0.0688
     38 H4         -0.5155    1.8650    0.9221 H         1 <0>         0.0733
     39 H5          0.2315   -0.1816    2.1452 H         1 <0>         0.0701
     40 H6          0.7500   -1.6217    1.2367 H         1 <0>         0.0703
     41 H7          1.7661   -0.1603    1.2436 H         1 <0>         0.0614
     42 H8         -1.9554   -0.1685   -0.8673 H         1 <0>         0.0779
     43 H9         -1.4232   -1.6265    0.0040 H         1 <0>         0.0864
     44 H10        -1.6453    0.4891    1.8618 H         1 <0>         0.3960
     45 H11        -3.5437    0.5274    3.2236 H         1 <0>         0.4080
     46 H12        -5.7962    1.6278    3.7050 H         1 <0>         0.1344
     47 H13        -8.1897    1.1506    4.0224 H         1 <0>         0.1375
     48 H14        -7.6939   -2.6382    2.1228 H         1 <0>         0.1372
     49 H15        -5.3017   -2.1641    1.7917 H         1 <0>         0.1508
     50 H16         3.7651   -2.6378   -3.8943 H         1 <0>         0.1385
     51 H17         5.7325   -2.3304   -5.3357 H         1 <0>         0.1454
     52 H18         3.2284    1.6150   -3.7369 H         1 <0>         0.1371
     53 H19         4.8919    2.4875   -6.0656 H         1 <0>         0.3968
     54 H20         1.9331   -1.3461   -5.6274 H         1 <0>         0.1322
     55 H21         1.7095   -3.0323   -7.4040 H         1 <0>         0.1568
     56 H22        -0.0366   -5.7398   -4.7859 H         1 <0>         0.1586
     57 H23         0.1363   -4.1535   -2.9140 H         1 <0>         0.1397
@<TRIPOS>BOND
     1    1    2 1
     2    1   36 1
     3    1   37 1
     4    1   38 1
     5    2    3 1
     6    2    4 1
     7    2   16 1
     8    3   39 1
     9    3   40 1
    10    3   41 1
    11    4    5 1
    12    4   42 1
    13    4   43 1
    14    5    6 am
    15    5   44 1
    16    6    7 2
    17    6    8 am
    18    8    9 1
    19    8   45 1
    20    9   14 ar
    21    9   10 ar
    22   10   11 ar
    23   10   46 1
    24   11   12 ar
    25   11   47 1
    26   12   13 ar
    27   12   15 1
    28   13   14 ar
    29   13   48 1
    30   14   49 1
    31   16   17 2
    32   16   21 1
    33   17   19 1
    34   18   21 1
    35   19   30 1
    36   19   20 2
    37   20   22 1
    38   20   21 1
    39   22   27 ar
    40   22   23 ar
    41   23   24 ar
    42   23   50 1
    43   24   25 ar
    44   24   51 1
    45   25   26 ar
    46   25   29 1
    47   26   27 ar
    48   26   28 1
    49   27   52 1
    50   28   53 1
    51   30   35 ar
    52   30   31 ar
    53   31   32 ar
    54   31   54 1
    55   32   33 ar
    56   32   55 1
    57   33   34 ar
    58   34   35 ar
    59   34   56 1
    60   35   57 1
@<TRIPOS>MOLECULE
CHEMBL521731
   39    42     0     0     0
SMALL
USER_CHARGES

@<TRIPOS>ATOM
      1 C1         -0.0178    1.4608    0.0101 C.3       1 <0>         0.0982
      2 N1          0.0021   -0.0041    0.0020 N.pl3     1 <0>        -0.3650
      3 C2          0.0077   -0.7862   -1.0962 C.2       1 <0>         0.0799
      4 C3          0.0272   -2.0857   -0.6833 C.2       1 <0>        -0.1941
      5 C4          0.0336   -2.0814    0.7350 C.2       1 <0>         0.1333
      6 N2          0.0245   -0.8284    1.1333 N.2       1 <0>        -0.2789
      7 C5          0.0538   -3.2769    1.6123 C.ar      1 <0>        -0.0700
      8 C6          0.7450   -3.2549    2.8273 C.ar      1 <0>        -0.0484
      9 C7          0.7334   -4.3964    3.6098 C.ar      1 <0>        -0.1732
     10 C8          0.0448   -5.5121    3.1689 C.ar      1 <0>         0.1057
     11 N3         -0.5984   -5.5031    2.0175 N.ar      1 <0>        -0.4796
     12 C9         -0.6205   -4.4386    1.2417 C.ar      1 <0>         0.1323
     13 C10         0.0395   -3.2832   -1.5566 C.ar      1 <0>         0.0214
     14 C11         0.9755   -4.2956   -1.3413 C.ar      1 <0>        -0.1125
     15 C12         0.9860   -5.4055   -2.1516 C.ar      1 <0>        -0.0619
     16 C13         0.0580   -5.5266   -3.1972 C.ar      1 <0>        -0.0693
     17 C14        -0.8758   -4.5137   -3.4091 C.ar      1 <0>        -0.0570
     18 C15        -0.8875   -3.4027   -2.5906 C.ar      1 <0>        -0.1060
     19 C16        -1.7568   -4.8729   -4.5818 C.3       1 <0>        -0.0825
     20 C17        -1.2683   -6.2368   -5.0880 C.3       1 <0>        -0.1141
     21 C18        -0.1200   -6.6110   -4.1827 C.2       1 <0>         0.1738
     22 N4          0.5853   -7.6935   -4.2576 N.2       1 <0>        -0.3256
     23 O1          0.3035   -8.6544   -5.2587 O.3       1 <0>        -0.4066
     24 H1          1.0048    1.8381    0.0023 H         1 <0>         0.0796
     25 H2         -0.5450    1.8219   -0.8730 H         1 <0>         0.0924
     26 H3         -0.5280    1.8123    0.9069 H         1 <0>         0.0931
     27 H4         -0.0016   -0.4443   -2.1206 H         1 <0>         0.1825
     28 H5          1.2748   -2.3697    3.1470 H         1 <0>         0.1378
     29 H6          1.2566   -4.4160    4.5544 H         1 <0>         0.1398
     30 H7          0.0340   -6.4046    3.7769 H         1 <0>         0.1591
     31 H8         -1.1622   -4.4682    0.3078 H         1 <0>         0.1570
     32 H9          1.6919   -4.2067   -0.5381 H         1 <0>         0.1259
     33 H10         1.7116   -6.1875   -1.9832 H         1 <0>         0.1289
     34 H11        -1.6148   -2.6213   -2.7544 H         1 <0>         0.1289
     35 H12        -2.7962   -4.9432   -4.2612 H         1 <0>         0.0904
     36 H13        -1.6570   -4.1244   -5.3678 H         1 <0>         0.0897
     37 H14        -2.0659   -6.9758   -5.0114 H         1 <0>         0.0949
     38 H15        -0.9252   -6.1560   -6.1194 H         1 <0>         0.0943
     39 H16         0.8826   -9.4284   -5.2351 H         1 <0>         0.4059
@<TRIPOS>BOND
     1    1    2 1
     2    1   24 1
     3    1   25 1
     4    1   26 1
     5    2    6 1
     6    2    3 1
     7    3    4 2
     8    3   27 1
     9    4    5 1
    10    4   13 1
    11    5    6 2
    12    5    7 1
    13    7   12 ar
    14    7    8 ar
    15    8    9 ar
    16    8   28 1
    17    9   10 ar
    18    9   29 1
    19   10   11 ar
    20   10   30 1
    21   11   12 ar
    22   12   31 1
    23   13   18 ar
    24   13   14 ar
    25   14   15 ar
    26   14   32 1
    27   15   16 ar
    28   15   33 1
    29   16   21 1
    30   16   17 ar
    31   17   18 ar
    32   17   19 1
    33   18   34 1
    34   19   20 1
    35   19   35 1
    36   19   36 1
    37   20   21 1
    38   20   37 1
    39   20   38 1
    40   21   22 2
    41   22   23 1
    42   23   39 1
@<TRIPOS>MOLECULE
CHEMBL498524
   41    44     0     0     0
SMALL
USER_CHARGES

@<TRIPOS>ATOM
      1 C1         -0.1982    1.2936    0.3203 C.3       1 <0>         0.0979
      2 N1         -0.1726   -0.1697    0.2556 N.pl3     1 <0>        -0.3639
      3 C2         -0.1237   -0.9081   -0.8716 C.2       1 <0>         0.0766
      4 C3         -0.1141   -2.2226   -0.5097 C.2       1 <0>        -0.1897
      5 C4         -0.1596   -2.2743    0.9070 C.2       1 <0>         0.1226
      6 N2         -0.1888   -1.0378    1.3537 N.2       1 <0>        -0.2732
      7 C5         -0.1667   -3.5031    1.7364 C.ar      1 <0>         0.0305
      8 C6         -0.8173   -4.6610    1.2993 C.ar      1 <0>        -0.1421
      9 C7         -0.7993   -5.7823    2.1025 C.ar      1 <0>         0.1013
     10 N3         -0.1802   -5.7710    3.2676 N.ar      1 <0>        -0.4795
     11 C8          0.4453   -4.6998    3.7170 C.ar      1 <0>         0.0999
     12 C9          0.4819   -3.5376    2.9746 C.ar      1 <0>        -0.1470
     13 C10        -0.0658   -3.3848   -1.4285 C.ar      1 <0>         0.0184
     14 C11         0.8669   -4.4008   -1.2169 C.ar      1 <0>        -0.1154
     15 C12         0.9124   -5.4774   -2.0743 C.ar      1 <0>        -0.0765
     16 C13         0.0255   -5.5494   -3.1485 C.ar      1 <0>        -0.1046
     17 C14        -0.9132   -4.5402   -3.3602 C.ar      1 <0>        -0.0460
     18 C15        -0.9558   -3.4626   -2.4981 C.ar      1 <0>        -0.1233
     19 C16        -1.8950   -4.6077   -4.4990 C.3       1 <0>        -0.1060
     20 C17        -1.3784   -5.5110   -5.6176 C.3       1 <0>         0.1371
     21 N4         -0.9332   -6.7882   -5.0341 N.pl3     1 <0>        -0.7349
     22 C18         0.0838   -6.7061   -4.0781 C.2       1 <0>         0.4135
     23 N5          1.0309   -7.5958   -4.0066 N.2       1 <0>        -0.3898
     24 O1          2.1330   -7.3887   -3.1421 O.3       1 <0>        -0.3972
     25 H1          0.8226    1.6732    0.3651 H         1 <0>         0.0802
     26 H2         -0.6938    1.6880   -0.5668 H         1 <0>         0.0925
     27 H3         -0.7423    1.6085    1.2107 H         1 <0>         0.0936
     28 H4         -0.0972   -0.5263   -1.8815 H         1 <0>         0.1821
     29 H5         -1.3266   -4.6771    0.3470 H         1 <0>         0.1371
     30 H6         -1.2990   -6.6815    1.7734 H         1 <0>         0.1587
     31 H7          0.9393   -4.7347    4.6767 H         1 <0>         0.1598
     32 H8          0.9997   -2.6659    3.3465 H         1 <0>         0.1381
     33 H9          1.5512   -4.3429   -0.3833 H         1 <0>         0.1224
     34 H10         1.6343   -6.2648   -1.9155 H         1 <0>         0.1599
     35 H11        -1.6783   -2.6754   -2.6555 H         1 <0>         0.1254
     36 H12        -2.8429   -5.0004   -4.1312 H         1 <0>         0.0866
     37 H13        -2.0538   -3.6043   -4.8942 H         1 <0>         0.0894
     38 H14        -2.1776   -5.6965   -6.3351 H         1 <0>         0.0943
     39 H15        -0.5403   -5.0273   -6.1194 H         1 <0>         0.0645
     40 H16        -1.3230   -7.6365   -5.2974 H         1 <0>         0.4118
     41 H17         2.7845   -8.1032   -3.1574 H         1 <0>         0.3946
@<TRIPOS>BOND
     1    1    2 1
     2    1   25 1
     3    1   26 1
     4    1   27 1
     5    2    6 1
     6    2    3 1
     7    3    4 2
     8    3   28 1
     9    4    5 1
    10    4   13 1
    11    5    6 2
    12    5    7 1
    13    7   12 ar
    14    7    8 ar
    15    8    9 ar
    16    8   29 1
    17    9   10 ar
    18    9   30 1
    19   10   11 ar
    20   11   12 ar
    21   11   31 1
    22   12   32 1
    23   13   18 ar
    24   13   14 ar
    25   14   15 ar
    26   14   33 1
    27   15   16 ar
    28   15   34 1
    29   16   22 1
    30   16   17 ar
    31   17   18 ar
    32   17   19 1
    33   18   35 1
    34   19   20 1
    35   19   36 1
    36   19   37 1
    37   20   21 1
    38   20   38 1
    39   20   39 1
    40   21   22 1
    41   21   40 1
    42   22   23 2
    43   23   24 1
    44   24   41 1
@<TRIPOS>MOLECULE
CHEMBL496478
   36    39     0     0     0
SMALL
USER_CHARGES

@<TRIPOS>ATOM
      1 C1         -0.0178    1.4608    0.0101 C.3       1 <0>         0.0970
      2 N1          0.0021   -0.0041    0.0020 N.pl3     1 <0>        -0.3637
      3 C2          0.0075   -0.7756   -1.1018 C.2       1 <0>         0.0819
      4 C3          0.0276   -2.0814   -0.7072 C.2       1 <0>        -0.1875
      5 C4          0.0345   -2.0782    0.7571 C.2       1 <0>         0.1596
      6 N2          0.0244   -0.8175    1.1393 N.2       1 <0>        -0.2551
      7 C5          0.0552   -3.2637    1.6386 C.2       1 <0>         0.0239
      8 C6          0.6835   -3.3698    2.8380 C.2       1 <0>         0.0058
      9 N3          0.4529   -4.6055    3.3066 N.2       1 <0>        -0.4863
     10 C7         -0.2848   -5.2519    2.4482 C.2       1 <0>         0.1861
     11 O1         -0.5521   -4.4487    1.4090 O.3       1 <0>        -0.1865
     12 C8          0.0399   -3.2720   -1.5893 C.ar      1 <0>         0.0258
     13 C9          0.9763   -4.2858   -1.3820 C.ar      1 <0>        -0.1092
     14 C10         0.9869   -5.3895   -2.2006 C.ar      1 <0>        -0.0639
     15 C11         0.0582   -5.5032   -3.2465 C.ar      1 <0>        -0.0701
     16 C12        -0.8761   -4.4889   -3.4505 C.ar      1 <0>        -0.0578
     17 C13        -0.8876   -3.3840   -2.6240 C.ar      1 <0>        -0.1030
     18 C14        -1.7579   -4.8400   -4.6250 C.3       1 <0>        -0.0824
     19 C15        -1.2695   -6.2001   -5.1413 C.3       1 <0>        -0.1140
     20 C16        -0.1204   -6.5805   -4.2396 C.2       1 <0>         0.1741
     21 N4          0.5855   -7.6620   -4.3231 N.2       1 <0>        -0.3263
     22 O2          0.3030   -8.6159   -5.3307 O.3       1 <0>        -0.4064
     23 H1          1.0048    1.8381    0.0023 H         1 <0>         0.0813
     24 H2         -0.5450    1.8219   -0.8730 H         1 <0>         0.0945
     25 H3         -0.5280    1.8123    0.9069 H         1 <0>         0.0946
     26 H4         -0.0026   -0.4220   -2.1223 H         1 <0>         0.1869
     27 H5          1.2631   -2.5999    3.3255 H         1 <0>         0.1888
     28 H6         -0.6284   -6.2699    2.5582 H         1 <0>         0.2544
     29 H7          1.6931   -4.2028   -0.5784 H         1 <0>         0.1246
     30 H8          1.7130   -6.1724   -2.0386 H         1 <0>         0.1292
     31 H9         -1.6149   -2.6014   -2.7819 H         1 <0>         0.1283
     32 H10        -2.7971   -4.9127   -4.3041 H         1 <0>         0.0900
     33 H11        -1.6589   -4.0859   -5.4058 H         1 <0>         0.0899
     34 H12        -2.0669   -6.9398   -5.0693 H         1 <0>         0.0948
     35 H13        -0.9273   -6.1119   -6.1724 H         1 <0>         0.0947
     36 H14         0.8827   -9.3897   -5.3135 H         1 <0>         0.4061
@<TRIPOS>BOND
     1    1    2 1
     2    1   23 1
     3    1   24 1
     4    1   25 1
     5    2    6 1
     6    2    3 1
     7    3    4 2
     8    3   26 1
     9    4    5 1
    10    4   12 1
    11    5    6 2
    12    5    7 1
    13    7   11 1
    14    7    8 2
    15    8    9 1
    16    8   27 1
    17    9   10 2
    18   10   11 1
    19   10   28 1
    20   12   17 ar
    21   12   13 ar
    22   13   14 ar
    23   13   29 1
    24   14   15 ar
    25   14   30 1
    26   15   20 1
    27   15   16 ar
    28   16   17 ar
    29   16   18 1
    30   17   31 1
    31   18   19 1
    32   18   32 1
    33   18   33 1
    34   19   20 1
    35   19   34 1
    36   19   35 1
    37   20   21 2
    38   21   22 1
    39   22   36 1
@<TRIPOS>MOLECULE
CHEMBL496477
   36    39     0     0     0
SMALL
USER_CHARGES

@<TRIPOS>ATOM
      1 C1         -0.0178    1.4608    0.0101 C.3       1 <0>         0.0973
      2 N1          0.0021   -0.0041    0.0020 N.pl3     1 <0>        -0.3629
      3 C2          0.0078   -0.7868   -1.0966 C.2       1 <0>         0.0796
      4 C3          0.0278   -2.0852   -0.6841 C.2       1 <0>        -0.1904
      5 C4          0.0344   -2.0819    0.7336 C.2       1 <0>         0.1221
      6 N2          0.0245   -0.8287    1.1331 N.2       1 <0>        -0.2719
      7 C5          0.0548   -3.2777    1.6097 C.ar      1 <0>         0.0307
      8 C6         -0.6144   -4.4489    1.2419 C.ar      1 <0>        -0.1453
      9 C7         -0.5698   -5.5385    2.0868 C.ar      1 <0>         0.1018
     10 N3          0.0919   -5.4848    3.2270 N.ar      1 <0>        -0.4798
     11 C8          0.7364   -4.3995    3.6112 C.ar      1 <0>         0.1007
     12 C9          0.7485   -3.2670    2.8236 C.ar      1 <0>        -0.1464
     13 C10         0.0398   -3.2837   -1.5589 C.ar      1 <0>        -0.0087
     14 C11         0.9764   -4.2944   -1.3431 C.ar      1 <0>        -0.0707
     15 C12         0.9891   -5.4119   -2.1565 C.ar      1 <0>        -0.0964
     16 C13         0.0779   -5.5306   -3.1822 C.ar      1 <0>        -0.0856
     17 C14        -0.8671   -4.5270   -3.4118 C.ar      1 <0>        -0.1553
     18 C15        -0.8864   -3.4010   -2.5896 C.ar      1 <0>        -0.0380
     19 C16        -1.6977   -4.9285   -4.5639 C.2       1 <0>         0.5608
     20 O1         -2.6132   -4.2733   -5.0221 O.2       1 <0>        -0.5254
     21 N4         -1.2964   -6.1219   -5.0343 N.am      1 <0>        -0.7243
     22 C17        -0.1687   -6.5943   -4.2233 C.3       1 <0>         0.1395
     23 H1          1.0048    1.8381    0.0023 H         1 <0>         0.0809
     24 H2         -0.5450    1.8219   -0.8730 H         1 <0>         0.0934
     25 H3         -0.5280    1.8123    0.9069 H         1 <0>         0.0941
     26 H4         -0.0022   -0.4451   -2.1210 H         1 <0>         0.1833
     27 H5         -1.1586   -4.4997    0.3104 H         1 <0>         0.1375
     28 H6         -1.0836   -6.4477    1.8114 H         1 <0>         0.1595
     29 H7          1.2651   -4.3991    4.5530 H         1 <0>         0.1600
     30 H8          1.2820   -2.3836    3.1421 H         1 <0>         0.1386
     31 H9          1.6926   -4.2036   -0.5399 H         1 <0>         0.1307
     32 H10         1.7153   -6.1933   -1.9876 H         1 <0>         0.1346
     33 H11        -1.6151   -2.6212   -2.7550 H         1 <0>         0.1325
     34 H12        -1.6880   -6.5933   -5.7862 H         1 <0>         0.4264
     35 H13         0.7157   -6.7189   -4.8482 H         1 <0>         0.0983
     36 H14        -0.4234   -7.5382   -3.7414 H         1 <0>         0.0990
@<TRIPOS>BOND
     1    1    2 1
     2    1   23 1
     3    1   24 1
     4    1   25 1
     5    2    6 1
     6    2    3 1
     7    3    4 2
     8    3   26 1
     9    4    5 1
    10    4   13 1
    11    5    6 2
    12    5    7 1
    13    7   12 ar
    14    7    8 ar
    15    8    9 ar
    16    8   27 1
    17    9   10 ar
    18    9   28 1
    19   10   11 ar
    20   11   12 ar
    21   11   29 1
    22   12   30 1
    23   13   18 ar
    24   13   14 ar
    25   14   15 ar
    26   14   31 1
    27   15   16 ar
    28   15   32 1
    29   16   22 1
    30   16   17 ar
    31   17   18 ar
    32   17   19 1
    33   18   33 1
    34   19   20 2
    35   19   21 am
    36   21   22 1
    37   21   34 1
    38   22   35 1
    39   22   36 1
@<TRIPOS>MOLECULE
CHEMBL521732
   34    37     0     0     0
SMALL
USER_CHARGES

@<TRIPOS>ATOM
      1 C1         -0.0178    1.4608    0.0101 C.3       1 <0>         0.0977
      2 N1          0.0021   -0.0041    0.0020 N.pl3     1 <0>        -0.3640
      3 C2          0.0078   -0.7868   -1.0966 C.2       1 <0>         0.0783
      4 C3          0.0281   -2.0855   -0.6840 C.2       1 <0>        -0.1899
      5 C4          0.0350   -2.0818    0.7339 C.2       1 <0>         0.1247
      6 N2          0.0245   -0.8286    1.1332 N.2       1 <0>        -0.2728
      7 C5          0.0561   -3.2774    1.6103 C.ar      1 <0>         0.0301
      8 C6         -0.6124   -4.4492    1.2428 C.ar      1 <0>        -0.1409
      9 C7         -0.5666   -5.5387    2.0877 C.ar      1 <0>         0.1012
     10 N3          0.0960   -5.4846    3.2274 N.ar      1 <0>        -0.4797
     11 C8          0.7399   -4.3988    3.6113 C.ar      1 <0>         0.0996
     12 C9          0.7501   -3.2660    2.8241 C.ar      1 <0>        -0.1465
     13 C10         0.0400   -3.2836   -1.5582 C.ar      1 <0>         0.0510
     14 C11         0.9820   -4.2967   -1.3393 C.ar      1 <0>        -0.1411
     15 C12         1.0063   -5.4027   -2.1326 C.ar      1 <0>        -0.0342
     16 C13         0.0831   -5.5350   -3.1796 C.ar      1 <0>        -0.1809
     17 C14        -0.1453   -6.5357   -4.1547 C.2       1 <0>         0.0756
     18 N4         -1.1418   -6.1664   -4.9060 N.2       1 <0>        -0.2525
     19 N5         -1.6217   -4.9224   -4.4790 N.pl3     1 <0>        -0.5074
     20 H1         -2.3592   -4.4306   -4.8730 H         1 <0>         0.4412
     21 C15        -0.8672   -4.5203   -3.4058 C.ar      1 <0>         0.1317
     22 C16        -0.8858   -3.3979   -2.5854 C.ar      1 <0>        -0.1395
     23 H2          1.0048    1.8381    0.0023 H         1 <0>         0.0807
     24 H3         -0.5450    1.8219   -0.8730 H         1 <0>         0.0924
     25 H4         -0.5280    1.8123    0.9069 H         1 <0>         0.0939
     26 H5         -0.0024   -0.4450   -2.1211 H         1 <0>         0.1822
     27 H6         -1.1570   -4.5004    0.3116 H         1 <0>         0.1378
     28 H7         -1.0802   -6.4481    1.8127 H         1 <0>         0.1592
     29 H8          1.2696   -4.3983    4.5525 H         1 <0>         0.1595
     30 H9          1.2828   -2.3822    3.1425 H         1 <0>         0.1380
     31 H10         1.6956   -4.1994   -0.5344 H         1 <0>         0.1241
     32 H11         1.7369   -6.1781   -1.9558 H         1 <0>         0.1308
     33 H12         0.4150   -7.4532   -4.2584 H         1 <0>         0.1939
     34 H13        -1.6140   -2.6174   -2.7494 H         1 <0>         0.1258
@<TRIPOS>BOND
     1    1    2 1
     2    1   23 1
     3    1   24 1
     4    1   25 1
     5    2    6 1
     6    2    3 1
     7    3    4 2
     8    3   26 1
     9    4    5 1
    10    4   13 1
    11    5    6 2
    12    5    7 1
    13    7   12 ar
    14    7    8 ar
    15    8    9 ar
    16    8   27 1
    17    9   10 ar
    18    9   28 1
    19   10   11 ar
    20   11   12 ar
    21   11   29 1
    22   12   30 1
    23   13   22 ar
    24   13   14 ar
    25   14   15 ar
    26   14   31 1
    27   15   16 ar
    28   15   32 1
    29   16   21 ar
    30   16   17 1
    31   17   18 2
    32   17   33 1
    33   18   19 1
    34   19   20 1
    35   19   21 1
    36   21   22 ar
    37   22   34 1
@<TRIPOS>MOLECULE
CHEMBL1090143
   49    53     0     0     0
SMALL
USER_CHARGES

@<TRIPOS>ATOM
      1 C1          0.0046    1.3799    0.1749 C.ar      1 <0>        -0.0991
      2 C2          1.1744    2.0888   -0.0117 C.ar      1 <0>        -0.1088
      3 C3          2.3781    1.4104   -0.2039 C.ar      1 <0>        -0.0440
      4 C4          2.3949    0.0164   -0.2069 C.ar      1 <0>        -0.0702
      5 C5          1.2153   -0.6869   -0.0188 C.ar      1 <0>         0.1429
      6 C6          0.0208   -0.0020    0.1720 C.ar      1 <0>        -0.1215
      7 N1          1.2269   -2.0856   -0.0209 N.am      1 <0>        -0.6692
      8 C7          2.2961   -2.7513    0.4586 C.2       1 <0>         0.5593
      9 O1          3.2085   -2.1406    0.9804 O.2       1 <0>        -0.4979
     10 C8          2.3594   -4.2241    0.3500 C.ar      1 <0>        -0.1380
     11 C9          1.3159   -4.9281   -0.2540 C.ar      1 <0>        -0.0545
     12 C10         1.3815   -6.3023   -0.3525 C.ar      1 <0>        -0.1232
     13 C11         2.4782   -6.9833    0.1460 C.ar      1 <0>        -0.0426
     14 C12         3.5156   -6.2918    0.7456 C.ar      1 <0>        -0.1883
     15 C13         3.4653   -4.9166    0.8455 C.ar      1 <0>        -0.0065
     16 C14         4.7059   -7.0418    1.2856 C.3       1 <0>         0.5101
     17 F1          4.5327   -8.4124    1.0652 F         1 <0>        -0.1745
     18 F2          5.8654   -6.6076    0.6342 F         1 <0>        -0.1725
     19 F3          4.8247   -6.8017    2.6587 F         1 <0>        -0.1723
     20 C15         3.6341    2.1687   -0.4047 C.ar      1 <0>         0.2821
     21 C16         3.6252    3.4065   -1.1127 C.ar      1 <0>        -0.1830
     22 C17         2.5476    4.0879   -1.7003 C.2       1 <0>        -0.1106
     23 C18         2.7590    5.2690   -2.3348 C.2       1 <0>        -0.0991
     24 S1          4.5171    5.5137   -2.1493 S.3       1 <0>         0.1459
     25 C19         4.8887    4.0372   -1.2386 C.ar      1 <0>         0.1197
     26 N2          5.9777    3.5019   -0.7323 N.ar      1 <0>        -0.4817
     27 C20         5.9204    2.3515   -0.0873 C.ar      1 <0>         0.3298
     28 N3          4.7797    1.7087    0.0757 N.ar      1 <0>        -0.5120
     29 C21         1.7752    6.1384   -3.0129 C.ar      1 <0>         0.0350
     30 C22         0.4194    5.7913   -3.0594 C.ar      1 <0>        -0.1524
     31 C23        -0.4641    6.6321   -3.7028 C.ar      1 <0>         0.1090
     32 N4         -0.0469    7.7485   -4.2694 N.ar      1 <0>        -0.4803
     33 C24         1.2212    8.1131   -4.2489 C.ar      1 <0>         0.1102
     34 C25         2.1717    7.3353   -3.6220 C.ar      1 <0>        -0.1587
     35 H1         -0.9256    1.9070    0.3280 H         1 <0>         0.1378
     36 H2          1.1576    3.1686   -0.0091 H         1 <0>         0.1329
     37 H3          3.3240   -0.5138   -0.3556 H         1 <0>         0.1466
     38 H4         -0.8973   -0.5514    0.3188 H         1 <0>         0.1334
     39 H5          0.4654   -2.5764   -0.3675 H         1 <0>         0.4124
     40 H6          0.4591   -4.3978   -0.6428 H         1 <0>         0.1371
     41 H7          0.5750   -6.8481   -0.8194 H         1 <0>         0.1464
     42 H8          2.5243   -8.0594    0.0669 H         1 <0>         0.1475
     43 H9          4.2777   -4.3776    1.3101 H         1 <0>         0.1506
     44 H10         1.5520    3.6726   -1.6480 H         1 <0>         0.1520
     45 H11         6.8270    1.9294    0.3204 H         1 <0>         0.2143
     46 H12         0.0711    4.8788   -2.5985 H         1 <0>         0.1404
     47 H13        -1.5118    6.3731   -3.7441 H         1 <0>         0.1635
     48 H14         1.5179    9.0355   -4.7260 H         1 <0>         0.1636
     49 H15         3.2070    7.6424   -3.6048 H         1 <0>         0.1386
@<TRIPOS>BOND
     1    1    6 ar
     2    1    2 ar
     3    1   35 1
     4    2    3 ar
     5    2   36 1
     6    3    4 ar
     7    3   20 1
     8    4    5 ar
     9    4   37 1
    10    5    6 ar
    11    5    7 1
    12    6   38 1
    13    7    8 am
    14    7   39 1
    15    8    9 2
    16    8   10 1
    17   10   15 ar
    18   10   11 ar
    19   11   12 ar
    20   11   40 1
    21   12   13 ar
    22   12   41 1
    23   13   14 ar
    24   13   42 1
    25   14   15 ar
    26   14   16 1
    27   15   43 1
    28   16   17 1
    29   16   18 1
    30   16   19 1
    31   20   28 ar
    32   20   21 ar
    33   21   25 ar
    34   21   22 1
    35   22   23 2
    36   22   44 1
    37   23   24 1
    38   23   29 1
    39   24   25 1
    40   25   26 ar
    41   26   27 ar
    42   27   28 ar
    43   27   45 1
    44   29   34 ar
    45   29   30 ar
    46   30   31 ar
    47   30   46 1
    48   31   32 ar
    49   31   47 1
    50   32   33 ar
    51   33   34 ar
    52   33   48 1
    53   34   49 1
@<TRIPOS>MOLECULE
CHEMBL103667
   76    80     0     0     0
SMALL
USER_CHARGES

@<TRIPOS>ATOM
      1 C1         -0.3322    1.6243    0.4536 C.3       1 <0>        -0.1171
      2 C2         -0.2070    0.1262    0.3489 C.ar      1 <0>        -0.0885
      3 C3         -0.0762   -0.4702   -0.8918 C.ar      1 <0>        -0.0946
      4 C4          0.0387   -1.8430   -0.9910 C.ar      1 <0>        -0.1046
      5 C5          0.0232   -2.6243    0.1567 C.ar      1 <0>         0.1532
      6 C6         -0.1078   -2.0225    1.4010 C.ar      1 <0>        -0.1479
      7 C7         -0.2175   -0.6488    1.4941 C.ar      1 <0>        -0.0928
      8 N1          0.1391   -4.0176    0.0593 N.pl3     1 <0>        -0.3431
      9 C8          0.7734   -4.8336    0.9447 C.2       1 <0>         0.3232
     10 C9          0.6550   -6.1082    0.4821 C.2       1 <0>        -0.2571
     11 C10        -0.0685   -6.0655   -0.7131 C.2       1 <0>         0.1105
     12 N2         -0.3823   -4.8199   -0.9638 N.2       1 <0>        -0.2743
     13 C11        -0.4319   -7.2539   -1.5655 C.3       1 <0>         0.0127
     14 C12        -1.5690   -8.0309   -0.8991 C.3       1 <0>        -0.1378
     15 C13        -0.8836   -6.7725   -2.9458 C.3       1 <0>        -0.1377
     16 C14         0.7880   -8.1649   -1.7171 C.3       1 <0>        -0.1383
     17 N3          1.4255   -4.4365    2.1118 N.am      1 <0>        -0.6589
     18 C15         2.0148   -5.3566    2.9008 C.2       1 <0>         0.7134
     19 O1          1.9779   -6.5329    2.5951 O.2       1 <0>        -0.5379
     20 N4          2.6450   -4.9728    4.0287 N.am      1 <0>        -0.6686
     21 C16         3.1683   -5.9347    4.8995 C.ar      1 <0>         0.1168
     22 C17         3.6902   -7.1092    4.4032 C.ar      1 <0>        -0.0692
     23 C18         4.2142   -8.0739    5.2583 C.ar      1 <0>        -0.2076
     24 C19         4.2254   -7.8840    6.6110 C.ar      1 <0>         0.1429
     25 C20         3.7005   -6.6955    7.1565 C.ar      1 <0>        -0.0567
     26 C21         3.1707   -5.7065    6.2914 C.ar      1 <0>        -0.0235
     27 C22         2.6525   -4.5206    6.8359 C.ar      1 <0>        -0.1251
     28 C23         2.6706   -4.3340    8.1844 C.ar      1 <0>        -0.0954
     29 C24         3.1968   -5.3041    9.0353 C.ar      1 <0>        -0.1310
     30 C25         3.6971   -6.4706    8.5431 C.ar      1 <0>        -0.0731
     31 O2          4.7412   -8.8392    7.4289 O.3       1 <0>        -0.2913
     32 C26         5.2551  -10.0181    6.8059 C.3       1 <0>         0.0620
     33 C27         5.7885  -10.9703    7.8782 C.3       1 <0>         0.0554
     34 N5          4.6825  -11.4036    8.7424 N.3       1 <0>        -0.5296
     35 C28         5.1863  -12.1149    9.9262 C.3       1 <0>         0.0180
     36 C29         4.0078  -12.4950   10.8265 C.3       1 <0>         0.0632
     37 O3          3.0768  -13.2812   10.0780 O.3       1 <0>        -0.3852
     38 C30         2.5653  -12.6187    8.9183 C.3       1 <0>         0.0640
     39 C31         3.7292  -12.2399    7.9987 C.3       1 <0>         0.0129
     40 H1          0.6601    2.0664    0.5429 H         1 <0>         0.0742
     41 H2         -0.8233    2.0112   -0.4393 H         1 <0>         0.0701
     42 H3         -0.9239    1.8789    1.3329 H         1 <0>         0.0694
     43 H4         -0.0643    0.1380   -1.7842 H         1 <0>         0.1341
     44 H5          0.1401   -2.3084   -1.9603 H         1 <0>         0.1362
     45 H6         -0.1202   -2.6276    2.2955 H         1 <0>         0.1242
     46 H7         -0.3153   -0.1798    2.4620 H         1 <0>         0.1341
     47 H8          1.0504   -6.9953    0.9546 H         1 <0>         0.1800
     48 H9         -2.4381   -7.3819   -0.7911 H         1 <0>         0.0563
     49 H10        -1.8318   -8.8905   -1.5157 H         1 <0>         0.0654
     50 H11        -1.2472   -8.3739    0.0842 H         1 <0>         0.0613
     51 H12        -0.0734   -6.2189   -3.4205 H         1 <0>         0.0565
     52 H13        -1.1464   -7.6321   -3.5623 H         1 <0>         0.0602
     53 H14        -1.7526   -6.1235   -2.8378 H         1 <0>         0.0610
     54 H15         1.1097   -8.5078   -0.7338 H         1 <0>         0.0634
     55 H16         0.5251   -9.0245   -2.3336 H         1 <0>         0.0645
     56 H17         1.5981   -7.6113   -2.1918 H         1 <0>         0.0568
     57 H18         1.4549   -3.4981    2.3556 H         1 <0>         0.4088
     58 H19         2.7357   -4.0298    4.2367 H         1 <0>         0.4073
     59 H20         3.6923   -7.2835    3.3374 H         1 <0>         0.1464
     60 H21         4.6179   -8.9869    4.8462 H         1 <0>         0.1307
     61 H22         2.2419   -3.7601    6.1883 H         1 <0>         0.1215
     62 H23         2.2717   -3.4208    8.6007 H         1 <0>         0.1248
     63 H24         3.1998   -5.1318   10.1014 H         1 <0>         0.1256
     64 H25         4.1011   -7.2140    9.2144 H         1 <0>         0.1361
     65 H26         4.4593  -10.5100    6.2466 H         1 <0>         0.0659
     66 H27         6.0630   -9.7472    6.1262 H         1 <0>         0.0707
     67 H28         6.2384  -11.8405    7.4001 H         1 <0>         0.0601
     68 H29         6.5394  -10.4571    8.4789 H         1 <0>         0.0903
     69 H30         5.7107  -13.0176    9.6126 H         1 <0>         0.0436
     70 H31         5.8704  -11.4682   10.4757 H         1 <0>         0.0882
     71 H32         4.3708  -13.0723   11.6768 H         1 <0>         0.0990
     72 H33         3.5159  -11.5902   11.1834 H         1 <0>         0.0611
     73 H34         1.8850  -13.2856    8.3885 H         1 <0>         0.0988
     74 H35         2.0314  -11.7175    9.2197 H         1 <0>         0.0612
     75 H36         3.3496  -11.6844    7.1411 H         1 <0>         0.0866
     76 H37         4.2303  -13.1446    7.6543 H         1 <0>         0.0443
@<TRIPOS>BOND
     1    1    2 1
     2    1   40 1
     3    1   41 1
     4    1   42 1
     5    2    7 ar
     6    2    3 ar
     7    3    4 ar
     8    3   43 1
     9    4    5 ar
    10    4   44 1
    11    5    6 ar
    12    5    8 1
    13    6    7 ar
    14    6   45 1
    15    7   46 1
    16    8   12 1
    17    8    9 1
    18    9   10 2
    19    9   17 1
    20   10   11 1
    21   10   47 1
    22   11   12 2
    23   11   13 1
    24   13   14 1
    25   13   15 1
    26   13   16 1
    27   14   48 1
    28   14   49 1
    29   14   50 1
    30   15   51 1
    31   15   52 1
    32   15   53 1
    33   16   54 1
    34   16   55 1
    35   16   56 1
    36   17   18 am
    37   17   57 1
    38   18   19 2
    39   18   20 am
    40   20   21 1
    41   20   58 1
    42   21   26 ar
    43   21   22 ar
    44   22   23 ar
    45   22   59 1
    46   23   24 ar
    47   23   60 1
    48   24   25 ar
    49   24   31 1
    50   25   30 ar
    51   25   26 ar
    52   26   27 ar
    53   27   28 ar
    54   27   61 1
    55   28   29 ar
    56   28   62 1
    57   29   30 ar
    58   29   63 1
    59   30   64 1
    60   31   32 1
    61   32   33 1
    62   32   65 1
    63   32   66 1
    64   33   34 1
    65   33   67 1
    66   33   68 1
    67   34   39 1
    68   34   35 1
    69   35   36 1
    70   35   69 1
    71   35   70 1
    72   36   37 1
    73   36   71 1
    74   36   72 1
    75   37   38 1
    76   38   39 1
    77   38   73 1
    78   38   74 1
    79   39   75 1
    80   39   76 1
@<TRIPOS>MOLECULE
CHEMBL103667__1
   77    81     0     0     0
SMALL
USER_CHARGES

@<TRIPOS>ATOM
      1 C1          0.0965    2.2706    1.2839 C.3       1 <0>        -0.1189
      2 C2          0.1488    0.7761    1.0973 C.ar      1 <0>        -0.0845
      3 C3          0.2264    0.2421   -0.1758 C.ar      1 <0>        -0.0934
      4 C4          0.2745   -1.1272   -0.3501 C.ar      1 <0>        -0.1023
      5 C5          0.2453   -1.9676    0.7547 C.ar      1 <0>         0.1483
      6 C6          0.1678   -1.4284    2.0318 C.ar      1 <0>        -0.1481
      7 C7          0.1249   -0.0581    2.1999 C.ar      1 <0>        -0.0936
      8 N1          0.2935   -3.3576    0.5811 N.pl3     1 <0>        -0.3396
      9 C8          0.9063   -4.2483    1.4076 C.2       1 <0>         0.3176
     10 C9          0.7188   -5.4894    0.8810 C.2       1 <0>        -0.2552
     11 C10        -0.0258   -5.3491   -0.2936 C.2       1 <0>         0.1093
     12 N2         -0.2856   -4.0787   -0.4709 N.2       1 <0>        -0.2685
     13 C11        -0.4618   -6.4719   -1.1993 C.3       1 <0>         0.0124
     14 C12        -1.6207   -7.2306   -0.5494 C.3       1 <0>        -0.1374
     15 C13        -0.9180   -5.8965   -2.5416 C.3       1 <0>        -0.1394
     16 C14         0.7105   -7.4285   -1.4263 C.3       1 <0>        -0.1375
     17 N3          1.5997   -3.9451    2.5790 N.am      1 <0>        -0.6555
     18 C15         2.1608   -4.9325    3.3048 C.2       1 <0>         0.7165
     19 O1          2.0624   -6.0877    2.9382 O.2       1 <0>        -0.5384
     20 N4          2.8309   -4.6395    4.4368 N.am      1 <0>        -0.6737
     21 C16         3.3294   -5.6699    5.2413 C.ar      1 <0>         0.1531
     22 C17         3.7902   -6.8355    4.6694 C.ar      1 <0>        -0.0879
     23 C18         4.2890   -7.8678    5.4580 C.ar      1 <0>        -0.1788
     24 C19         4.3352   -7.7548    6.8186 C.ar      1 <0>         0.1117
     25 C20         3.8729   -6.5779    7.4404 C.ar      1 <0>        -0.0449
     26 C21         3.3692   -5.5205    6.6433 C.ar      1 <0>        -0.0320
     27 C22         2.9135   -4.3464    7.2639 C.ar      1 <0>        -0.1116
     28 C23         2.9663   -4.2368    8.6199 C.ar      1 <0>        -0.0964
     29 C24         3.4670   -5.2744    9.4040 C.ar      1 <0>        -0.1119
     30 C25         3.9067   -6.4313    8.8371 C.ar      1 <0>        -0.0953
     31 O2          4.8253   -8.7753    7.5707 O.3       1 <0>        -0.3254
     32 C26         5.2756   -9.9379    6.8723 C.3       1 <0>         0.0242
     33 C27         5.7885  -10.9703    7.8782 C.3       1 <0>         0.0004
     34 N5          4.6825  -11.4036    8.7424 N.4       1 <0>        -0.3871
     35 C28         5.2015  -12.2837    9.7983 C.3       1 <0>        -0.0437
     36 C29         4.0473  -12.7335   10.6975 C.3       1 <0>         0.0354
     37 O3          3.0593  -13.3940    9.9016 O.3       1 <0>        -0.3558
     38 C30         2.5399  -12.5843    8.8431 C.3       1 <0>         0.0371
     39 C31         3.6913  -12.1342    7.9405 C.3       1 <0>        -0.0503
     40 H1          1.1101    2.6612    1.3741 H         1 <0>         0.0754
     41 H2         -0.3937    2.7272    0.4241 H         1 <0>         0.0718
     42 H3         -0.4648    2.5044    2.1886 H         1 <0>         0.0703
     43 H4          0.2490    0.8963   -1.0348 H         1 <0>         0.1360
     44 H5          0.3344   -1.5438   -1.3447 H         1 <0>         0.1371
     45 H6          0.1450   -2.0796    2.8931 H         1 <0>         0.1223
     46 H7          0.0687    0.3621    3.1932 H         1 <0>         0.1345
     47 H8          1.0814   -6.4178    1.2968 H         1 <0>         0.1785
     48 H9         -2.4558   -6.5491   -0.3876 H         1 <0>         0.0571
     49 H10        -1.9360   -8.0427   -1.2044 H         1 <0>         0.0664
     50 H11        -1.2957   -7.6405    0.4069 H         1 <0>         0.0592
     51 H12        -0.0924   -5.3560   -3.0046 H         1 <0>         0.0574
     52 H13        -1.2333   -6.7086   -3.1966 H         1 <0>         0.0616
     53 H14        -1.7532   -5.2150   -2.3798 H         1 <0>         0.0621
     54 H15         1.0354   -7.8383   -0.4701 H         1 <0>         0.0609
     55 H16         0.3951   -8.2406   -2.0814 H         1 <0>         0.0654
     56 H17         1.5360   -6.8879   -1.8893 H         1 <0>         0.0573
     57 H18         1.6782   -3.0236    2.8714 H         1 <0>         0.4108
     58 H19         2.9675   -3.7142    4.6938 H         1 <0>         0.4114
     59 H20         3.7637   -6.9495    3.5958 H         1 <0>         0.1530
     60 H21         4.6447   -8.7724    4.9872 H         1 <0>         0.1321
     61 H22         2.5233   -3.5341    6.6686 H         1 <0>         0.1279
     62 H23         2.6155   -3.3325    9.0948 H         1 <0>         0.1316
     63 H24         3.4985   -5.1624   10.4777 H         1 <0>         0.1298
     64 H25         4.2914   -7.2275    9.4572 H         1 <0>         0.1284
     65 H26         4.4483  -10.3637    6.3045 H         1 <0>         0.0883
     66 H27         6.0807   -9.6633    6.1909 H         1 <0>         0.1130
     67 H28         6.1899  -11.8308    7.3429 H         1 <0>         0.1513
     68 H29         6.5734  -10.5239    8.4888 H         1 <0>         0.1448
     69 H30         5.6713  -13.1569    9.3456 H         1 <0>         0.1404
     70 H31         5.9368  -11.7427   10.3939 H         1 <0>         0.1439
     71 H32         4.4230  -13.4208   11.4556 H         1 <0>         0.1430
     72 H33         3.6029  -11.8640   11.1817 H         1 <0>         0.0815
     73 H34         1.8246  -13.1635    8.2592 H         1 <0>         0.1429
     74 H35         2.0439  -11.7096    9.2638 H         1 <0>         0.0818
     75 H36         3.3056  -11.4821    7.1569 H         1 <0>         0.1410
     76 H37         4.1617  -13.0074    7.4885 H         1 <0>         0.1417
     77 H38         4.2467  -10.5958    9.1615 H         1 <0>         0.4297
@<TRIPOS>BOND
     1    1    2 1
     2    1   40 1
     3    1   41 1
     4    1   42 1
     5    2    7 ar
     6    2    3 ar
     7    3    4 ar
     8    3   43 1
     9    4    5 ar
    10    4   44 1
    11    5    6 ar
    12    5    8 1
    13    6    7 ar
    14    6   45 1
    15    7   46 1
    16    8   12 1
    17    8    9 1
    18    9   10 2
    19    9   17 1
    20   10   11 1
    21   10   47 1
    22   11   12 2
    23   11   13 1
    24   13   14 1
    25   13   15 1
    26   13   16 1
    27   14   48 1
    28   14   49 1
    29   14   50 1
    30   15   51 1
    31   15   52 1
    32   15   53 1
    33   16   54 1
    34   16   55 1
    35   16   56 1
    36   17   18 am
    37   17   57 1
    38   18   19 2
    39   18   20 am
    40   20   21 1
    41   20   58 1
    42   21   26 ar
    43   21   22 ar
    44   22   23 ar
    45   22   59 1
    46   23   24 ar
    47   23   60 1
    48   24   25 ar
    49   24   31 1
    50   25   30 ar
    51   25   26 ar
    52   26   27 ar
    53   27   28 ar
    54   27   61 1
    55   28   29 ar
    56   28   62 1
    57   29   30 ar
    58   29   63 1
    59   30   64 1
    60   31   32 1
    61   32   33 1
    62   32   65 1
    63   32   66 1
    64   33   34 1
    65   33   67 1
    66   33   68 1
    67   34   39 1
    68   34   35 1
    69   34   77 1
    70   35   36 1
    71   35   69 1
    72   35   70 1
    73   36   37 1
    74   36   71 1
    75   36   72 1
    76   37   38 1
    77   38   39 1
    78   38   73 1
    79   38   74 1
    80   39   75 1
    81   39   76 1
@<TRIPOS>MOLECULE
CHEMBL430413
   59    63     0     0     0
SMALL
USER_CHARGES

@<TRIPOS>ATOM
      1 C1         -0.4123    1.8347   -0.4715 C.3       1 <0>         0.0988
      2 N1         -0.1796    0.3886   -0.5019 N.pl3     1 <0>        -0.6899
      3 C2          0.7227   -0.1858    0.3767 C.ar      1 <0>         0.5802
      4 N2          1.3627    0.5880    1.2420 N.ar      1 <0>        -0.5472
      5 C3          2.2340    0.0785    2.0998 C.ar      1 <0>         0.2170
      6 C4          2.4774   -1.2817    2.0898 C.ar      1 <0>        -0.2748
      7 C5          1.7869   -2.0760    1.1646 C.ar      1 <0>         0.2592
      8 N3          0.9197   -1.4934    0.3345 N.ar      1 <0>        -0.5407
      9 C6          2.0110   -3.5321    1.1129 C.2       1 <0>         0.1013
     10 C7          1.1326   -4.4926    0.6416 C.2       1 <0>         0.1443
     11 N4          1.7346   -5.6874    0.7773 N.pl3     1 <0>        -0.4675
     12 C8          2.9191   -5.5235    1.2985 C.cat     1 <0>         0.3775
     13 N5          3.1388   -4.2108    1.5181 N.pl3     1 <0>        -0.4994
     14 H1          3.9420   -3.8177    1.8940 H         1 <0>         0.4633
     15 C9          3.8951   -6.6306    1.6031 C.3       1 <0>        -0.1452
     16 C10         5.3854   -6.3209    1.4490 C.3       1 <0>        -0.1434
     17 C11         4.7762   -6.4740    2.8441 C.3       1 <0>        -0.1420
     18 C12        -0.2208   -4.2493    0.0901 C.ar      1 <0>        -0.0389
     19 C13        -1.0918   -3.3710    0.7355 C.ar      1 <0>        -0.0603
     20 C14        -2.3519   -3.1454    0.2198 C.ar      1 <0>        -0.0930
     21 C15        -2.7557   -3.7874   -0.9360 C.ar      1 <0>        -0.1080
     22 C16        -1.8954   -4.6641   -1.5854 C.ar      1 <0>         0.1686
     23 C17        -0.6255   -4.8924   -1.0777 C.ar      1 <0>        -0.0914
     24 N6         -2.3086   -5.3125   -2.7548 N.am      1 <0>        -0.6790
     25 C18        -1.8696   -6.5576   -3.0260 C.2       1 <0>         0.7127
     26 O1         -1.1913   -7.1539   -2.2119 O.2       1 <0>        -0.5625
     27 N7         -2.1825   -7.1417   -4.1996 N.am      1 <0>        -0.6756
     28 C19        -1.8196   -8.4726   -4.4378 C.ar      1 <0>         0.1637
     29 C20        -1.7922   -9.3842   -3.3904 C.ar      1 <0>        -0.0774
     30 C21        -1.4339  -10.6965   -3.6280 C.ar      1 <0>        -0.0883
     31 C22        -1.1018  -11.1034   -4.9085 C.ar      1 <0>        -0.0064
     32 C23        -1.1283  -10.1972   -5.9537 C.ar      1 <0>        -0.1535
     33 C24        -1.4921   -8.8848   -5.7225 C.ar      1 <0>        -0.0863
     34 C25        -0.7661  -10.6438   -7.3467 C.3       1 <0>         0.5101
     35 F1         -0.8661   -9.5594   -8.2249 F         1 <0>        -0.1736
     36 F2          0.5454  -11.1306   -7.3541 F         1 <0>        -0.1667
     37 F3         -1.6415  -11.6561   -7.7543 F         1 <0>        -0.1653
     38 Cl1        -0.6506  -12.7536   -5.2036 Cl        1 <0>        -0.0332
     39 H2          0.5223    2.3575   -0.6747 H         1 <0>         0.0656
     40 H3         -1.1493    2.1001   -1.2295 H         1 <0>         0.0836
     41 H4         -0.7832    2.1224    0.5122 H         1 <0>         0.0666
     42 H5         -0.6578   -0.1663   -1.1377 H         1 <0>         0.4184
     43 H6          2.7493    0.7197    2.7996 H         1 <0>         0.1822
     44 H7          3.1832   -1.7221    2.7784 H         1 <0>         0.1452
     45 H8          3.5605   -7.6359    1.3471 H         1 <0>         0.1649
     46 H9          6.0317   -7.1225    1.0913 H         1 <0>         0.1324
     47 H10         5.6601   -5.3164    1.1272 H         1 <0>         0.1081
     48 H11         4.6501   -5.5702    3.4401 H         1 <0>         0.1089
     49 H12         5.0217   -7.3763    3.4042 H         1 <0>         0.1325
     50 H13        -0.7800   -2.8680    1.6388 H         1 <0>         0.1228
     51 H14        -3.0248   -2.4654    0.7211 H         1 <0>         0.1402
     52 H15        -3.7429   -3.6072   -1.3351 H         1 <0>         0.1389
     53 H16         0.0465   -5.5698   -1.5837 H         1 <0>         0.1399
     54 H17        -2.9110   -4.8659   -3.3700 H         1 <0>         0.4170
     55 H18        -2.6591   -6.6399   -4.8793 H         1 <0>         0.4171
     56 H19        -2.0506   -9.0670   -2.3909 H         1 <0>         0.1547
     57 H20        -1.4124  -11.4057   -2.8139 H         1 <0>         0.1526
     58 H21        -1.5169   -8.1789   -6.5394 H         1 <0>         0.1533
     59 H22         1.3473   -6.5405    0.5261 H         1 <0>         0.4677
@<TRIPOS>BOND
     1    1    2 1
     2    1   39 1
     3    1   40 1
     4    1   41 1
     5    2    3 1
     6    2   42 1
     7    3    8 ar
     8    3    4 ar
     9    4    5 ar
    10    5    6 ar
    11    5   43 1
    12    6    7 ar
    13    6   44 1
    14    7    8 ar
    15    7    9 1
    16    9   13 1
    17    9   10 2
    18   10   11 1
    19   10   18 1
    20   11   12 2
    21   11   59 1
    22   12   13 1
    23   12   15 1
    24   13   14 1
    25   15   17 1
    26   15   16 1
    27   15   45 1
    28   16   17 1
    29   16   46 1
    30   16   47 1
    31   17   48 1
    32   17   49 1
    33   18   23 ar
    34   18   19 ar
    35   19   20 ar
    36   19   50 1
    37   20   21 ar
    38   20   51 1
    39   21   22 ar
    40   21   52 1
    41   22   23 ar
    42   22   24 1
    43   23   53 1
    44   24   25 am
    45   24   54 1
    46   25   26 2
    47   25   27 am
    48   27   28 1
    49   27   55 1
    50   28   33 ar
    51   28   29 ar
    52   29   30 ar
    53   29   56 1
    54   30   31 ar
    55   30   57 1
    56   31   32 ar
    57   31   38 1
    58   32   33 ar
    59   32   34 1
    60   33   58 1
    61   34   35 1
    62   34   36 1
    63   34   37 1
@<TRIPOS>MOLECULE
CHEMBL430413__1
   58    62     0     0     0
SMALL
USER_CHARGES

@<TRIPOS>ATOM
      1 C1          0.4417    1.7362    0.0409 C.3       1 <0>         0.1060
      2 N1          0.4285    0.2806    0.2063 N.pl3     1 <0>        -0.6995
      3 C2         -0.7461   -0.3664    0.5490 C.ar      1 <0>         0.5717
      4 N2         -1.8504    0.3472    0.7181 N.ar      1 <0>        -0.5695
      5 C3         -2.9951   -0.2327    1.0462 C.ar      1 <0>         0.2025
      6 C4         -3.0355   -1.6037    1.2142 C.ar      1 <0>        -0.2913
      7 C5         -1.8537   -2.3334    1.0292 C.ar      1 <0>         0.2973
      8 N3         -0.7386   -1.6815    0.6940 N.ar      1 <0>        -0.5458
      9 C6         -1.8434   -3.7979    1.1970 C.2       1 <0>         0.0031
     10 C7         -0.9597   -4.6949    0.6220 C.2       1 <0>         0.1160
     11 N4         -1.3087   -5.9248    1.0391 N.2       1 <0>        -0.4633
     12 C8         -2.3438   -5.8414    1.8285 C.2       1 <0>         0.2723
     13 N5         -2.7076   -4.5494    1.9622 N.pl3     1 <0>        -0.5478
     14 H1         -3.4432   -4.2120    2.4969 H         1 <0>         0.4223
     15 C9         -3.0253   -7.0093    2.4939 C.3       1 <0>        -0.0820
     16 C10        -4.4269   -6.7790    3.0625 C.3       1 <0>        -0.1751
     17 C11        -4.2442   -7.6101    1.7910 C.3       1 <0>        -0.1520
     18 C12         0.1630   -4.3615   -0.2856 C.ar      1 <0>         0.0158
     19 C13         0.0412   -3.3072   -1.1911 C.ar      1 <0>        -0.0730
     20 C14         1.0883   -2.9980   -2.0353 C.ar      1 <0>        -0.1075
     21 C15         2.2599   -3.7302   -1.9873 C.ar      1 <0>        -0.1351
     22 C16         2.3903   -4.7823   -1.0891 C.ar      1 <0>         0.1492
     23 C17         1.3456   -5.0963   -0.2333 C.ar      1 <0>        -0.0838
     24 N6          3.5779   -5.5214   -1.0446 N.am      1 <0>        -0.6770
     25 C18         3.5430   -6.8354   -0.7467 C.2       1 <0>         0.7024
     26 O1          2.4747   -7.3995   -0.6092 O.2       1 <0>        -0.5415
     27 N7          4.6924   -7.5240   -0.6011 N.am      1 <0>        -0.6817
     28 C19         4.6579   -8.9089   -0.3992 C.ar      1 <0>         0.1741
     29 C20         3.6611   -9.6734   -0.9913 C.ar      1 <0>        -0.0755
     30 C21         3.6292  -11.0393   -0.7905 C.ar      1 <0>        -0.0862
     31 C22         4.5892  -11.6463    0.0003 C.ar      1 <0>        -0.0102
     32 C23         5.5834  -10.8869    0.5913 C.ar      1 <0>        -0.1564
     33 C24         5.6233   -9.5211    0.3886 C.ar      1 <0>        -0.0916
     34 C25         6.6271  -11.5512    1.4517 C.3       1 <0>         0.5113
     35 F1          7.5173  -10.5857    1.9340 F         1 <0>        -0.1749
     36 F2          6.0050  -12.1914    2.5289 F         1 <0>        -0.1677
     37 F3          7.3280  -12.4931    0.6910 F         1 <0>        -0.1683
     38 Cl1         4.5457  -13.3635    0.2516 Cl        1 <0>        -0.0422
     39 H2          1.4467    2.0624   -0.2269 H         1 <0>         0.0766
     40 H3         -0.2544    2.0185   -0.7489 H         1 <0>         0.0603
     41 H4          0.1427    2.2108    0.9755 H         1 <0>         0.0592
     42 H5          1.2430   -0.2297    0.0757 H         1 <0>         0.4162
     43 H6         -3.8878    0.3600    1.1815 H         1 <0>         0.1703
     44 H7         -3.9561   -2.1010    1.4820 H         1 <0>         0.1374
     45 H8         -2.3686   -7.6915    3.0338 H         1 <0>         0.1381
     46 H9         -4.6925   -7.3096    3.9768 H         1 <0>         0.1110
     47 H10        -4.8561   -5.7828    2.9553 H         1 <0>         0.0917
     48 H11        -4.5532   -7.1607    0.8473 H         1 <0>         0.0988
     49 H12        -4.3897   -8.6875    1.8688 H         1 <0>         0.1101
     50 H13        -0.8727   -2.7332   -1.2317 H         1 <0>         0.1140
     51 H14         0.9920   -2.1817   -2.7358 H         1 <0>         0.1248
     52 H15         3.0762   -3.4840   -2.6502 H         1 <0>         0.1244
     53 H16         1.4468   -5.9106    0.4690 H         1 <0>         0.1403
     54 H17         4.4260   -5.0880   -1.2282 H         1 <0>         0.4091
     55 H18         5.5435   -7.0601   -0.6361 H         1 <0>         0.4128
     56 H19         2.9112   -9.2002   -1.6079 H         1 <0>         0.1572
     57 H20         2.8542  -11.6343   -1.2507 H         1 <0>         0.1516
     58 H21         6.4021   -8.9293    0.8465 H         1 <0>         0.1512
@<TRIPOS>BOND
     1    1    2 1
     2    1   39 1
     3    1   40 1
     4    1   41 1
     5    2    3 1
     6    2   42 1
     7    3    8 ar
     8    3    4 ar
     9    4    5 ar
    10    5    6 ar
    11    5   43 1
    12    6    7 ar
    13    6   44 1
    14    7    8 ar
    15    7    9 1
    16    9   13 1
    17    9   10 2
    18   10   11 1
    19   10   18 1
    20   11   12 2
    21   12   13 1
    22   12   15 1
    23   13   14 1
    24   15   17 1
    25   15   16 1
    26   15   45 1
    27   16   17 1
    28   16   46 1
    29   16   47 1
    30   17   48 1
    31   17   49 1
    32   18   23 ar
    33   18   19 ar
    34   19   20 ar
    35   19   50 1
    36   20   21 ar
    37   20   51 1
    38   21   22 ar
    39   21   52 1
    40   22   23 ar
    41   22   24 1
    42   23   53 1
    43   24   25 am
    44   24   54 1
    45   25   26 2
    46   25   27 am
    47   27   28 1
    48   27   55 1
    49   28   33 ar
    50   28   29 ar
    51   29   30 ar
    52   29   56 1
    53   30   31 ar
    54   30   57 1
    55   31   32 ar
    56   31   38 1
    57   32   33 ar
    58   32   34 1
    59   33   58 1
    60   34   35 1
    61   34   36 1
    62   34   37 1
@<TRIPOS>MOLECULE
CHEMBL430413__2
   58    62     0     0     0
SMALL
USER_CHARGES

@<TRIPOS>ATOM
      1 C1          0.5881    1.8466   -0.0834 C.3       1 <0>         0.1083
      2 N1          0.5212    0.3954    0.1051 N.pl3     1 <0>        -0.7047
      3 C2         -0.6815   -0.2048    0.4357 C.ar      1 <0>         0.5654
      4 N2         -1.7631    0.5489    0.5721 N.ar      1 <0>        -0.5708
      5 C3         -2.9327    0.0135    0.8872 C.ar      1 <0>         0.1904
      6 C4         -3.0226   -1.3529    1.0757 C.ar      1 <0>        -0.2599
      7 C5         -1.8645   -2.1241    0.9252 C.ar      1 <0>         0.3021
      8 N3         -0.7227   -1.5171    0.6020 N.ar      1 <0>        -0.5557
      9 C6         -1.9081   -3.5899    1.1162 C.2       1 <0>         0.0477
     10 C7         -1.0372   -4.5139    0.5652 C.2       1 <0>         0.0754
     11 N4         -1.4527   -5.7452    1.0088 N.pl3     1 <0>        -0.5530
     12 C8         -2.5383   -5.5454    1.7985 C.2       1 <0>         0.2549
     13 N5         -2.7992   -4.2705    1.8631 N.2       1 <0>        -0.4523
     14 H1         -1.0459   -6.5998    0.7967 H         1 <0>         0.4252
     15 C9         -3.3171   -6.6296    2.4978 C.3       1 <0>        -0.0786
     16 C10        -2.6543   -8.0022    2.6304 C.3       1 <0>        -0.1745
     17 C11        -2.8033   -7.1027    3.8591 C.3       1 <0>        -0.1544
     18 C12         0.1090   -4.2321   -0.3228 C.ar      1 <0>         0.0092
     19 C13        -0.0300   -3.3327   -1.3826 C.ar      1 <0>        -0.0702
     20 C14         1.0424   -3.0714   -2.2104 C.ar      1 <0>        -0.0976
     21 C15         2.2563   -3.6975   -1.9955 C.ar      1 <0>        -0.1328
     22 C16         2.4048   -4.5943   -0.9444 C.ar      1 <0>         0.1574
     23 C17         1.3358   -4.8589   -0.1027 C.ar      1 <0>        -0.1041
     24 N6          3.6355   -5.2259   -0.7321 N.am      1 <0>        -0.6763
     25 C18         3.6733   -6.4811   -0.2428 C.2       1 <0>         0.7078
     26 O1          2.6399   -7.0994   -0.0745 O.2       1 <0>        -0.5548
     27 N7          4.8565   -7.0511    0.0599 N.am      1 <0>        -0.6800
     28 C19         4.9050   -8.3903    0.4649 C.ar      1 <0>         0.1715
     29 C20         3.9999   -9.3071   -0.0536 C.ar      1 <0>        -0.0772
     30 C21         4.0499  -10.6275    0.3476 C.ar      1 <0>        -0.0870
     31 C22         5.0007  -11.0374    1.2659 C.ar      1 <0>        -0.0092
     32 C23         5.9036  -10.1260    1.7841 C.ar      1 <0>        -0.1552
     33 C24         5.8618   -8.8053    1.3814 C.ar      1 <0>        -0.0900
     34 C25         6.9376  -10.5759    2.7838 C.3       1 <0>         0.5110
     35 F1          7.7293   -9.4851    3.1588 F         1 <0>        -0.1743
     36 F2          6.2980  -11.0979    3.9133 F         1 <0>        -0.1672
     37 F3          7.7453  -11.5622    2.2077 F         1 <0>        -0.1675
     38 Cl1         5.0601  -12.6978    1.7691 Cl        1 <0>        -0.0395
     39 H2          1.6087    2.1334   -0.3372 H         1 <0>         0.0736
     40 H3         -0.0830    2.1395   -0.8908 H         1 <0>         0.0586
     41 H4          0.2886    2.3468    0.8376 H         1 <0>         0.0578
     42 H5          1.3197   -0.1449   -0.0017 H         1 <0>         0.4130
     43 H6         -3.8071    0.6380    0.9960 H         1 <0>         0.1688
     44 H7         -3.9644   -1.8145    1.3335 H         1 <0>         0.1481
     45 H8         -4.3966   -6.6039    2.3486 H         1 <0>         0.1373
     46 H9         -3.2977   -8.8798    2.5682 H         1 <0>         0.1107
     47 H10        -1.6549   -8.1210    2.2118 H         1 <0>         0.0921
     48 H11        -1.9019   -6.6298    4.2488 H         1 <0>         0.0973
     49 H12        -3.5446   -7.3886    4.6052 H         1 <0>         0.1094
     50 H13        -0.9768   -2.8422   -1.5540 H         1 <0>         0.1179
     51 H14         0.9331   -2.3758   -3.0292 H         1 <0>         0.1297
     52 H15         3.0919   -3.4892   -2.6472 H         1 <0>         0.1276
     53 H16         1.4507   -5.5519    0.7177 H         1 <0>         0.1328
     54 H17         4.4614   -4.7602   -0.9371 H         1 <0>         0.4114
     55 H18         5.6744   -6.5335   -0.0029 H         1 <0>         0.4145
     56 H19         3.2573   -8.9876   -0.7698 H         1 <0>         0.1560
     57 H20         3.3462  -11.3408   -0.0554 H         1 <0>         0.1518
     58 H21         6.5697   -8.0952    1.7827 H         1 <0>         0.1521
@<TRIPOS>BOND
     1    1    2 1
     2    1   39 1
     3    1   40 1
     4    1   41 1
     5    2    3 1
     6    2   42 1
     7    3    8 ar
     8    3    4 ar
     9    4    5 ar
    10    5    6 ar
    11    5   43 1
    12    6    7 ar
    13    6   44 1
    14    7    8 ar
    15    7    9 1
    16    9   13 1
    17    9   10 2
    18   10   18 1
    19   10   11 1
    20   11   12 1
    21   11   14 1
    22   12   15 1
    23   12   13 2
    24   15   17 1
    25   15   16 1
    26   15   45 1
    27   16   17 1
    28   16   46 1
    29   16   47 1
    30   17   48 1
    31   17   49 1
    32   18   23 ar
    33   18   19 ar
    34   19   20 ar
    35   19   50 1
    36   20   21 ar
    37   20   51 1
    38   21   22 ar
    39   21   52 1
    40   22   23 ar
    41   22   24 1
    42   23   53 1
    43   24   25 am
    44   24   54 1
    45   25   26 2
    46   25   27 am
    47   27   28 1
    48   27   55 1
    49   28   33 ar
    50   28   29 ar
    51   29   30 ar
    52   29   56 1
    53   30   31 ar
    54   30   57 1
    55   31   32 ar
    56   31   38 1
    57   32   33 ar
    58   32   34 1
    59   33   58 1
    60   34   35 1
    61   34   36 1
    62   34   37 1
@<TRIPOS>MOLECULE
CHEMBL522902
   60    64     0     0     0
SMALL
USER_CHARGES

@<TRIPOS>ATOM
      1 C1         -1.7190   -1.3839   -0.3970 C.3       1 <0>        -0.1667
      2 C2         -0.2564   -1.7692   -0.1659 C.3       1 <0>         0.1297
      3 N1          0.5670   -1.2344   -1.2532 N.pl3     1 <0>        -0.3633
      4 C3          1.6495   -0.4449   -1.1063 C.2       1 <0>         0.0767
      5 C4          2.1334   -0.1638   -2.3507 C.2       1 <0>        -0.1933
      6 C5          1.2965   -0.8194   -3.2902 C.2       1 <0>         0.1385
      7 N2          0.3660   -1.4619   -2.6197 N.2       1 <0>        -0.2747
      8 C6          1.4484   -0.7905   -4.7652 C.ar      1 <0>         0.0078
      9 C7          2.7120   -0.9186   -5.3405 C.ar      1 <0>        -0.1029
     10 C8          2.8515   -0.8915   -6.7135 C.ar      1 <0>        -0.0999
     11 C9          1.7412   -0.7376   -7.5222 C.ar      1 <0>        -0.1388
     12 C10         0.4783   -0.6089   -6.9577 C.ar      1 <0>         0.1601
     13 C11         0.3287   -0.6413   -5.5795 C.ar      1 <0>        -0.0879
     14 N3         -0.6434   -0.4524   -7.7801 N.am      1 <0>        -0.6871
     15 C12        -1.6657    0.3313   -7.3835 C.2       1 <0>         0.7037
     16 O1         -1.6531    0.8327   -6.2759 O.2       1 <0>        -0.5672
     17 N4         -2.7019    0.5591   -8.2146 N.am      1 <0>        -0.7390
     18 C13        -3.8131    1.4109   -7.7835 C.3       1 <0>         0.1641
     19 C14        -4.8209    0.5735   -6.9935 C.3       1 <0>        -0.1301
     20 C15        -5.9814    1.4631   -6.5433 C.3       1 <0>        -0.1174
     21 C16        -6.6690    2.0645   -7.7707 C.3       1 <0>        -0.1228
     22 C17        -5.6612    2.9019   -8.5606 C.3       1 <0>        -0.1160
     23 C18        -4.5007    2.0123   -9.0109 C.3       1 <0>        -0.1264
     24 C19         3.3147    0.6725   -2.6633 C.ar      1 <0>         0.0913
     25 C20         4.5996    0.2717   -2.2943 C.ar      1 <0>        -0.1998
     26 C21         5.6755    1.0824   -2.6055 C.ar      1 <0>         0.1392
     27 N5          5.5206    2.2250   -3.2421 N.ar      1 <0>        -0.5038
     28 C22         4.3258    2.6625   -3.6203 C.ar      1 <0>         0.2875
     29 C23         3.1796    1.8948   -3.3475 C.ar      1 <0>        -0.1332
     30 C24         2.0466    2.6404   -3.8925 C.2       1 <0>        -0.1772
     31 C25         2.5451    3.7597   -4.4428 C.2       1 <0>         0.0554
     32 N6          3.9046    3.7917   -4.2808 N.pl3     1 <0>        -0.5837
     33 H1          4.4859    4.5014   -4.5959 H         1 <0>         0.4185
     34 H2         -1.8093   -0.2980   -0.4207 H         1 <0>         0.0616
     35 H3         -2.0580   -1.7975   -1.3467 H         1 <0>         0.0714
     36 H4         -2.3317   -1.7819    0.4120 H         1 <0>         0.0764
     37 H5          0.0826   -1.3556    0.7838 H         1 <0>         0.0982
     38 H6         -0.1662   -2.8552   -0.1422 H         1 <0>         0.0873
     39 H7          2.0604   -0.0963   -0.1703 H         1 <0>         0.1782
     40 H8          3.5819   -1.0386   -4.7117 H         1 <0>         0.1228
     41 H9          3.8312   -0.9904   -7.1571 H         1 <0>         0.1279
     42 H10         1.8557   -0.7171   -8.5960 H         1 <0>         0.1248
     43 H11        -0.6527   -0.5466   -5.1388 H         1 <0>         0.1438
     44 H12        -0.6850   -0.9079   -8.6355 H         1 <0>         0.4063
     45 H13        -2.7119    0.1591   -9.0982 H         1 <0>         0.3961
     46 H14        -3.4321    2.2128   -7.1511 H         1 <0>         0.0898
     47 H15        -5.2019   -0.2284   -7.6259 H         1 <0>         0.0624
     48 H16        -4.3311    0.1451   -6.1191 H         1 <0>         0.0681
     49 H17        -6.6994    0.8665   -5.9805 H         1 <0>         0.0650
     50 H18        -5.6004    2.2650   -5.9109 H         1 <0>         0.0647
     51 H19        -7.0500    1.2626   -8.4030 H         1 <0>         0.0626
     52 H20        -7.4958    2.6982   -7.4499 H         1 <0>         0.0645
     53 H21        -6.1511    3.3303   -9.4351 H         1 <0>         0.0680
     54 H22        -5.2802    3.7038   -7.9283 H         1 <0>         0.0658
     55 H23        -3.7827    2.6088   -9.5737 H         1 <0>         0.0688
     56 H24        -4.8817    1.2104   -9.6433 H         1 <0>         0.0679
     57 H25         4.7517   -0.6609   -1.7712 H         1 <0>         0.1354
     58 H26         6.6690    0.7707   -2.3187 H         1 <0>         0.1598
     59 H27         1.0077    2.3473   -3.8595 H         1 <0>         0.1456
     60 H28         1.9602    4.5245   -4.9322 H         1 <0>         0.1752
@<TRIPOS>BOND
     1    1    2 1
     2    1   34 1
     3    1   35 1
     4    1   36 1
     5    2    3 1
     6    2   37 1
     7    2   38 1
     8    3    7 1
     9    3    4 1
    10    4    5 2
    11    4   39 1
    12    5    6 1
    13    5   24 1
    14    6    7 2
    15    6    8 1
    16    8   13 ar
    17    8    9 ar
    18    9   10 ar
    19    9   40 1
    20   10   11 ar
    21   10   41 1
    22   11   12 ar
    23   11   42 1
    24   12   13 ar
    25   12   14 1
    26   13   43 1
    27   14   15 am
    28   14   44 1
    29   15   16 2
    30   15   17 am
    31   17   18 1
    32   17   45 1
    33   18   23 1
    34   18   19 1
    35   18   46 1
    36   19   20 1
    37   19   47 1
    38   19   48 1
    39   20   21 1
    40   20   49 1
    41   20   50 1
    42   21   22 1
    43   21   51 1
    44   21   52 1
    45   22   23 1
    46   22   53 1
    47   22   54 1
    48   23   55 1
    49   23   56 1
    50   24   29 ar
    51   24   25 ar
    52   25   26 ar
    53   25   57 1
    54   26   27 ar
    55   26   58 1
    56   27   28 ar
    57   28   32 1
    58   28   29 ar
    59   29   30 1
    60   30   31 2
    61   30   59 1
    62   31   32 1
    63   31   60 1
    64   32   33 1
@<TRIPOS>MOLECULE
CHEMBL496265
   57    61     0     0     0
SMALL
USER_CHARGES

@<TRIPOS>ATOM
      1 C1         -1.7190   -1.3839   -0.3970 C.3       1 <0>        -0.1668
      2 C2         -0.2564   -1.7692   -0.1660 C.3       1 <0>         0.1297
      3 N1          0.5670   -1.2344   -1.2532 N.pl3     1 <0>        -0.3633
      4 C3          1.6495   -0.4449   -1.1063 C.2       1 <0>         0.0768
      5 C4          2.1334   -0.1638   -2.3507 C.2       1 <0>        -0.1932
      6 C5          1.2965   -0.8194   -3.2902 C.2       1 <0>         0.1384
      7 N2          0.3660   -1.4619   -2.6197 N.2       1 <0>        -0.2747
      8 C6          1.4484   -0.7905   -4.7652 C.ar      1 <0>         0.0080
      9 C7          2.7120   -0.9186   -5.3405 C.ar      1 <0>        -0.1025
     10 C8          2.8515   -0.8915   -6.7135 C.ar      1 <0>        -0.0999
     11 C9          1.7412   -0.7376   -7.5222 C.ar      1 <0>        -0.1382
     12 C10         0.4783   -0.6089   -6.9577 C.ar      1 <0>         0.1597
     13 C11         0.3287   -0.6413   -5.5795 C.ar      1 <0>        -0.0881
     14 N3         -0.6434   -0.4524   -7.7801 N.am      1 <0>        -0.6859
     15 C12        -1.6657    0.3313   -7.3835 C.2       1 <0>         0.7036
     16 O1         -1.6531    0.8327   -6.2759 O.2       1 <0>        -0.5677
     17 N4         -2.7019    0.5591   -8.2146 N.am      1 <0>        -0.7380
     18 C13        -3.8131    1.4109   -7.7835 C.3       1 <0>         0.1809
     19 C14        -4.8333    1.5033   -8.8888 C.ar      1 <0>        -0.1126
     20 C15        -4.7336    2.5017   -9.8397 C.ar      1 <0>        -0.0993
     21 C16        -5.6694    2.5865  -10.8536 C.ar      1 <0>        -0.1220
     22 C17        -6.7047    1.6727  -10.9168 C.ar      1 <0>        -0.1101
     23 C18        -6.8039    0.6738   -9.9664 C.ar      1 <0>        -0.1219
     24 C19        -5.8657    0.5864   -8.9550 C.ar      1 <0>        -0.0993
     25 C20         3.3147    0.6725   -2.6633 C.ar      1 <0>         0.0913
     26 C21         4.5996    0.2717   -2.2943 C.ar      1 <0>        -0.1997
     27 C22         5.6755    1.0824   -2.6055 C.ar      1 <0>         0.1392
     28 N5          5.5206    2.2250   -3.2421 N.ar      1 <0>        -0.5038
     29 C23         4.3258    2.6624   -3.6203 C.ar      1 <0>         0.2875
     30 C24         3.1796    1.8948   -3.3475 C.ar      1 <0>        -0.1332
     31 C25         2.0466    2.6404   -3.8925 C.2       1 <0>        -0.1774
     32 C26         2.5452    3.7597   -4.4428 C.2       1 <0>         0.0555
     33 N6          3.9046    3.7917   -4.2808 N.pl3     1 <0>        -0.5837
     34 H1          4.4860    4.5014   -4.5959 H         1 <0>         0.4185
     35 H2         -1.8093   -0.2979   -0.4207 H         1 <0>         0.0617
     36 H3         -2.0580   -1.7975   -1.3468 H         1 <0>         0.0715
     37 H4         -2.3317   -1.7819    0.4120 H         1 <0>         0.0764
     38 H5          0.0826   -1.3556    0.7838 H         1 <0>         0.0982
     39 H6         -0.1662   -2.8552   -0.1422 H         1 <0>         0.0874
     40 H7          2.0604   -0.0963   -0.1703 H         1 <0>         0.1782
     41 H8          3.5819   -1.0386   -4.7117 H         1 <0>         0.1230
     42 H9          3.8312   -0.9904   -7.1571 H         1 <0>         0.1281
     43 H10         1.8557   -0.7171   -8.5960 H         1 <0>         0.1250
     44 H11        -0.6527   -0.5465   -5.1388 H         1 <0>         0.1440
     45 H12        -0.6850   -0.9079   -8.6355 H         1 <0>         0.4069
     46 H13        -2.7119    0.1591   -9.0982 H         1 <0>         0.3986
     47 H14        -4.2771    0.9811   -6.8958 H         1 <0>         0.0771
     48 H15        -3.4380    2.4076   -7.5510 H         1 <0>         0.0774
     49 H16        -3.9248    3.2157   -9.7903 H         1 <0>         0.1243
     50 H17        -5.5919    3.3669  -11.5961 H         1 <0>         0.1249
     51 H18        -7.4363    1.7394  -11.7085 H         1 <0>         0.1241
     52 H19        -7.6130   -0.0400  -10.0156 H         1 <0>         0.1250
     53 H20        -5.9410   -0.1963   -8.2146 H         1 <0>         0.1244
     54 H21         4.7517   -0.6609   -1.7712 H         1 <0>         0.1354
     55 H22         6.6690    0.7707   -2.3187 H         1 <0>         0.1598
     56 H23         1.0077    2.3473   -3.8595 H         1 <0>         0.1457
     57 H24         1.9603    4.5245   -4.9322 H         1 <0>         0.1753
@<TRIPOS>BOND
     1    1    2 1
     2    1   35 1
     3    1   36 1
     4    1   37 1
     5    2    3 1
     6    2   38 1
     7    2   39 1
     8    3    7 1
     9    3    4 1
    10    4    5 2
    11    4   40 1
    12    5    6 1
    13    5   25 1
    14    6    7 2
    15    6    8 1
    16    8   13 ar
    17    8    9 ar
    18    9   10 ar
    19    9   41 1
    20   10   11 ar
    21   10   42 1
    22   11   12 ar
    23   11   43 1
    24   12   13 ar
    25   12   14 1
    26   13   44 1
    27   14   15 am
    28   14   45 1
    29   15   16 2
    30   15   17 am
    31   17   18 1
    32   17   46 1
    33   18   19 1
    34   18   47 1
    35   18   48 1
    36   19   24 ar
    37   19   20 ar
    38   20   21 ar
    39   20   49 1
    40   21   22 ar
    41   21   50 1
    42   22   23 ar
    43   22   51 1
    44   23   24 ar
    45   23   52 1
    46   24   53 1
    47   25   30 ar
    48   25   26 ar
    49   26   27 ar
    50   26   54 1
    51   27   28 ar
    52   27   55 1
    53   28   29 ar
    54   29   33 1
    55   29   30 ar
    56   30   31 1
    57   31   32 2
    58   31   56 1
    59   32   33 1
    60   32   57 1
    61   33   34 1
@<TRIPOS>MOLECULE
CHEMBL1421
   60    63     0     0     0
SMALL
USER_CHARGES

@<TRIPOS>ATOM
      1 C1         -2.0700    1.6928    0.2333 C.3       1 <0>        -0.1170
      2 C2         -1.6482    0.2604    0.0301 C.ar      1 <0>        -0.0813
      3 C3         -1.8479   -0.3525   -1.1919 C.ar      1 <0>        -0.1034
      4 C4         -1.4615   -1.6665   -1.3798 C.ar      1 <0>        -0.0990
      5 C5         -0.8738   -2.3725   -0.3459 C.ar      1 <0>        -0.1046
      6 C6         -0.6714   -1.7660    0.8791 C.ar      1 <0>        -0.0220
      7 C7         -1.0534   -0.4428    1.0688 C.ar      1 <0>         0.1347
      8 N1         -0.8441    0.1769    2.3055 N.am      1 <0>        -0.6659
      9 C8         -1.2819   -0.4110    3.4365 C.2       1 <0>         0.6018
     10 O1         -1.7689   -1.5261    3.3939 O.2       1 <0>        -0.4722
     11 C9         -1.1720    0.2905    4.7149 C.2       1 <0>        -0.2635
     12 C10        -1.5472   -0.1201    5.9866 C.2       1 <0>         0.1512
     13 N2         -1.3262    0.7270    6.9599 N.2       1 <0>        -0.5510
     14 C11        -0.7756    1.9070    6.7361 C.2       1 <0>         0.2513
     15 S1         -0.5107    1.9100    5.0742 S.3       1 <0>         0.2445
     16 N3         -0.4817    2.8997    7.6498 N.pl3     1 <0>        -0.5870
     17 C12        -0.6908    2.6801    9.0050 C.ar      1 <0>         0.4543
     18 C13        -1.0534    1.4192    9.4679 C.ar      1 <0>        -0.2926
     19 C14        -1.2512    1.2508   10.8352 C.ar      1 <0>         0.4935
     20 N4         -1.0875    2.2952   11.6453 N.ar      1 <0>        -0.5328
     21 C15        -0.7435    3.4737   11.1677 C.ar      1 <0>         0.4541
     22 N5         -0.5417    3.6719    9.8809 N.ar      1 <0>        -0.5672
     23 C16        -0.5694    4.6273   12.1217 C.3       1 <0>        -0.1251
     24 N6         -1.6138    0.0143   11.3464 N.pl3     1 <0>        -0.5370
     25 C17        -2.0559   -0.1253   12.7422 C.3       1 <0>         0.1090
     26 C18        -3.3866   -0.8852   12.7576 C.3       1 <0>         0.0383
     27 N7         -3.2335   -2.1493   12.0251 N.3       1 <0>        -0.5289
     28 C19        -2.9165   -1.9105   10.6107 C.3       1 <0>         0.0343
     29 C20        -1.5725   -1.1917   10.5056 C.3       1 <0>         0.1057
     30 C21        -4.4334   -2.9856   12.1619 C.3       1 <0>         0.0545
     31 C22        -4.1483   -4.3816   11.6043 C.3       1 <0>         0.0776
     32 O2         -3.1500   -5.0191   12.4038 O.3       1 <0>        -0.5606
     33 Cl1         0.0658   -2.6526    2.1768 Cl        1 <0>        -0.0453
     34 H1         -1.2464    2.3553   -0.0328 H         1 <0>         0.0773
     35 H2         -2.9308    1.9112   -0.3987 H         1 <0>         0.0785
     36 H3         -2.3379    1.8478    1.2784 H         1 <0>         0.0640
     37 H4         -2.3069    0.1956   -2.0014 H         1 <0>         0.1372
     38 H5         -1.6193   -2.1430   -2.3361 H         1 <0>         0.1391
     39 H6         -0.5731   -3.3989   -0.4959 H         1 <0>         0.1403
     40 H7         -0.3838    1.0296    2.3489 H         1 <0>         0.4083
     41 H8         -1.9972   -1.0858    6.1634 H         1 <0>         0.2027
     42 H9         -0.1293    3.7505    7.3451 H         1 <0>         0.4460
     43 H10        -1.1784    0.5927    8.7841 H         1 <0>         0.2218
     44 H11         0.4644    4.6619   12.4652 H         1 <0>         0.1245
     45 H12        -0.8146    5.5596   11.6130 H         1 <0>         0.1071
     46 H13        -1.2322    4.4948   12.9768 H         1 <0>         0.1273
     47 H14        -1.3096   -0.6823   13.3087 H         1 <0>         0.0989
     48 H15        -2.1929    0.8619   13.1834 H         1 <0>         0.1094
     49 H16        -3.6740   -1.0944   13.7880 H         1 <0>         0.1036
     50 H17        -4.1569   -0.2794   12.2806 H         1 <0>         0.0428
     51 H18        -2.8631   -2.8634   10.0841 H         1 <0>         0.1043
     52 H19        -3.6935   -1.2904   10.1636 H         1 <0>         0.0450
     53 H20        -1.3900   -0.9091    9.4688 H         1 <0>         0.1029
     54 H21        -0.7788   -1.8532   10.8529 H         1 <0>         0.1042
     55 H22        -4.7041   -3.0633   13.2149 H         1 <0>         0.0912
     56 H23        -5.2561   -2.5340   11.6075 H         1 <0>         0.0533
     57 H24        -5.0627   -4.9745   11.6240 H         1 <0>         0.0547
     58 H25        -3.7921   -4.2970   10.5776 H         1 <0>         0.0454
     59 H26        -2.9188   -5.9101   12.1076 H         1 <0>         0.3805
     60 H27        -0.2852    4.5531    9.5669 H         1 <0>         0.4414
@<TRIPOS>BOND
     1    1    2 1
     2    1   34 1
     3    1   35 1
     4    1   36 1
     5    2    7 ar
     6    2    3 ar
     7    3    4 ar
     8    3   37 1
     9    4    5 ar
    10    4   38 1
    11    5    6 ar
    12    5   39 1
    13    6    7 ar
    14    6   33 1
    15    7    8 1
    16    8    9 am
    17    8   40 1
    18    9   10 2
    19    9   11 1
    20   11   15 1
    21   11   12 2
    22   12   13 1
    23   12   41 1
    24   13   14 2
    25   14   15 1
    26   14   16 1
    27   16   17 1
    28   16   42 1
    29   17   22 ar
    30   17   18 ar
    31   18   19 ar
    32   18   43 1
    33   19   20 ar
    34   19   24 1
    35   20   21 ar
    36   21   22 ar
    37   21   23 1
    38   22   60 1
    39   23   44 1
    40   23   45 1
    41   23   46 1
    42   24   29 1
    43   24   25 1
    44   25   26 1
    45   25   47 1
    46   25   48 1
    47   26   27 1
    48   26   49 1
    49   26   50 1
    50   27   28 1
    51   27   30 1
    52   28   29 1
    53   28   51 1
    54   28   52 1
    55   29   53 1
    56   29   54 1
    57   30   31 1
    58   30   55 1
    59   30   56 1
    60   31   32 1
    61   31   57 1
    62   31   58 1
    63   32   59 1
@<TRIPOS>MOLECULE
CHEMBL1421__1
   60    63     0     0     0
SMALL
USER_CHARGES

@<TRIPOS>ATOM
      1 C1          3.4124    6.6512    1.8897 C.3       1 <0>        -0.1163
      2 C2          2.6920    7.9714    1.9854 C.ar      1 <0>        -0.0843
      3 C3          3.0121    8.9981    1.1182 C.ar      1 <0>        -0.1045
      4 C4          2.3522   10.2099    1.2048 C.ar      1 <0>        -0.1038
      5 C5          1.3694   10.3990    2.1594 C.ar      1 <0>        -0.1055
      6 C6          1.0444    9.3766    3.0303 C.ar      1 <0>        -0.0236
      7 C7          1.7022    8.1551    2.9413 C.ar      1 <0>         0.1417
      8 N1          1.3714    7.1153    3.8168 N.am      1 <0>        -0.6710
      9 C8          1.3553    7.3335    5.1467 C.2       1 <0>         0.6087
     10 O1          1.5292    8.4574    5.5814 O.2       1 <0>        -0.4836
     11 C9          1.1291    6.2203    6.0676 C.2       1 <0>        -0.2919
     12 C10         1.0670    6.2153    7.4542 C.2       1 <0>         0.1635
     13 N2          0.8483    5.0563    8.0223 N.2       1 <0>        -0.5133
     14 C11         0.6959    3.9554    7.3079 C.2       1 <0>         0.2908
     15 S1          0.8482    4.4913    5.7199 S.3       1 <0>         0.1520
     16 N3          0.4615    2.6710    7.7573 N.pl3     1 <0>        -0.5898
     17 C12         0.2513    2.4361    9.1097 C.ar      1 <0>         0.4534
     18 C13        -0.0954    1.1662    9.5600 C.ar      1 <0>        -0.3376
     19 C14        -0.2952    0.9826   10.9250 C.ar      1 <0>         0.4607
     20 N4         -0.1485    2.0216   11.7451 N.ar      1 <0>        -0.5908
     21 C15         0.1808    3.2091   11.2794 C.ar      1 <0>         0.4046
     22 N5          0.3838    3.4218    9.9951 N.ar      1 <0>        -0.5314
     23 C16         0.3360    4.3561   12.2444 C.3       1 <0>        -0.0894
     24 N6         -0.6424   -0.2634   11.4237 N.pl3     1 <0>        -0.6179
     25 C17        -1.0594   -0.4281   12.8248 C.3       1 <0>         0.1046
     26 C18        -2.3757   -1.2120   12.8509 C.3       1 <0>        -0.0221
     27 N7         -2.2083   -2.4723   12.1163 N.4       1 <0>        -0.3823
     28 C19        -1.9425   -2.1937   10.6993 C.3       1 <0>        -0.0268
     29 C20        -0.6101   -1.4576   10.5651 C.3       1 <0>         0.1016
     30 C21        -3.4346   -3.2724   12.2345 C.3       1 <0>        -0.0056
     31 C22        -3.2188   -4.6367   11.5764 C.3       1 <0>         0.0448
     32 O2         -2.2227   -5.3623   12.2999 O.3       1 <0>        -0.5801
     33 Cl1        -0.1888    9.6145    4.2287 Cl        1 <0>        -0.0445
     34 H1          2.8800    5.9959    1.2003 H         1 <0>         0.0756
     35 H2          4.4261    6.8160    1.5246 H         1 <0>         0.0766
     36 H3          3.4521    6.1867    2.8750 H         1 <0>         0.0659
     37 H4          3.7793    8.8541    0.3718 H         1 <0>         0.1351
     38 H5          2.6049   11.0108    0.5257 H         1 <0>         0.1369
     39 H6          0.8557   11.3468    2.2245 H         1 <0>         0.1384
     40 H7          1.1536    6.2373    3.4667 H         1 <0>         0.4079
     41 H8          1.1926    7.1184    8.0330 H         1 <0>         0.1916
     42 H9          0.4436    1.9328    7.1283 H         1 <0>         0.4399
     43 H10        -0.2069    0.3443    8.8682 H         1 <0>         0.1428
     44 H11         1.3682    4.4018   12.5916 H         1 <0>         0.0928
     45 H12         0.0795    5.2896   11.7434 H         1 <0>         0.0949
     46 H13        -0.3276    4.2067   13.0961 H         1 <0>         0.0877
     47 H14        -0.2944   -0.9785   13.3724 H         1 <0>         0.0917
     48 H15        -1.2071    0.5511   13.2804 H         1 <0>         0.1402
     49 H16        -2.6503   -1.4269   13.8836 H         1 <0>         0.1447
     50 H17        -3.1610   -0.6193   12.3817 H         1 <0>         0.1326
     51 H18        -1.8978   -3.1321   10.1466 H         1 <0>         0.1433
     52 H19        -2.7409   -1.5714   10.2952 H         1 <0>         0.1343
     53 H20        -0.4609   -1.1588    9.5276 H         1 <0>         0.1286
     54 H21         0.2011   -2.1137   10.8807 H         1 <0>         0.0966
     55 H22        -3.6776   -3.4115   13.2880 H         1 <0>         0.1407
     56 H23        -4.2553   -2.7551   11.7376 H         1 <0>         0.1422
     57 H24        -4.1541   -5.1964   11.5852 H         1 <0>         0.0964
     58 H25        -2.8895   -4.4955   10.5470 H         1 <0>         0.0713
     59 H26        -2.0341   -6.2389   11.9379 H         1 <0>         0.4101
     60 H27        -1.4342   -2.9879   12.5075 H         1 <0>         0.4311
@<TRIPOS>BOND
     1    1    2 1
     2    1   34 1
     3    1   35 1
     4    1   36 1
     5    2    7 ar
     6    2    3 ar
     7    3    4 ar
     8    3   37 1
     9    4    5 ar
    10    4   38 1
    11    5    6 ar
    12    5   39 1
    13    6    7 ar
    14    6   33 1
    15    7    8 1
    16    8    9 am
    17    8   40 1
    18    9   10 2
    19    9   11 1
    20   11   15 1
    21   11   12 2
    22   12   13 1
    23   12   41 1
    24   13   14 2
    25   14   15 1
    26   14   16 1
    27   16   17 1
    28   16   42 1
    29   17   22 ar
    30   17   18 ar
    31   18   19 ar
    32   18   43 1
    33   19   20 ar
    34   19   24 1
    35   20   21 ar
    36   21   22 ar
    37   21   23 1
    38   23   44 1
    39   23   45 1
    40   23   46 1
    41   24   29 1
    42   24   25 1
    43   25   26 1
    44   25   47 1
    45   25   48 1
    46   26   27 1
    47   26   49 1
    48   26   50 1
    49   27   28 1
    50   27   30 1
    51   27   60 1
    52   28   29 1
    53   28   51 1
    54   28   52 1
    55   29   53 1
    56   29   54 1
    57   30   31 1
    58   30   55 1
    59   30   56 1
    60   31   32 1
    61   31   57 1
    62   31   58 1
    63   32   59 1
@<TRIPOS>MOLECULE
CHEMBL1421__2
   61    64     0     0     0
SMALL
USER_CHARGES

@<TRIPOS>ATOM
      1 C1          3.2770    6.6581    1.8427 C.3       1 <0>        -0.1166
      2 C2          2.5837    7.9904    1.9667 C.ar      1 <0>        -0.0814
      3 C3          2.9012    9.0183    1.0999 C.ar      1 <0>        -0.1028
      4 C4          2.2660   10.2411    1.2125 C.ar      1 <0>        -0.0975
      5 C5          1.3108   10.4402    2.1928 C.ar      1 <0>        -0.1039
      6 C6          0.9888    9.4167    3.0634 C.ar      1 <0>        -0.0218
      7 C7          1.6215    8.1842    2.9485 C.ar      1 <0>         0.1327
      8 N1          1.2933    7.1433    3.8237 N.am      1 <0>        -0.6648
      9 C8          1.3141    7.3507    5.1552 C.2       1 <0>         0.5983
     10 O1          1.5193    8.4677    5.5943 O.2       1 <0>        -0.4690
     11 C9          1.0903    6.2342    6.0727 C.2       1 <0>        -0.2500
     12 C10         1.0624    6.2188    7.4604 C.2       1 <0>         0.1439
     13 N2          0.8362    5.0594    8.0246 N.2       1 <0>        -0.4984
     14 C11         0.6458    3.9675    7.3056 C.2       1 <0>         0.2172
     15 S1          0.7692    4.5136    5.7185 S.3       1 <0>         0.2242
     16 N3          0.3986    2.6839    7.7506 N.pl3     1 <0>        -0.5513
     17 C12         0.2203    2.4413    9.1063 C.ar      1 <0>         0.5098
     18 C13        -0.1335    1.1734    9.5556 C.ar      1 <0>        -0.3097
     19 C14        -0.3003    0.9817   10.9244 C.ar      1 <0>         0.4927
     20 N4         -0.1163    2.0116   11.7481 N.ar      1 <0>        -0.5695
     21 C15         0.2187    3.1980   11.2828 C.ar      1 <0>         0.4589
     22 N5          0.3911    3.4178    9.9956 N.ar      1 <0>        -0.4762
     23 C16         0.4165    4.3348   12.2521 C.3       1 <0>        -0.1303
     24 N6         -0.6531   -0.2629   11.4224 N.pl3     1 <0>        -0.6123
     25 C17        -0.9643   -0.4465   12.8484 C.3       1 <0>         0.0782
     26 C18        -2.3027   -1.1838   12.9625 C.3       1 <0>        -0.0204
     27 N7         -2.2406   -2.4311   12.1903 N.4       1 <0>        -0.3852
     28 C19        -2.0770   -2.1279   10.7629 C.3       1 <0>        -0.0304
     29 C20        -0.7330   -1.4363   10.5388 C.3       1 <0>         0.0932
     30 C21        -3.4827   -3.1900   12.3886 C.3       1 <0>        -0.0061
     31 C22        -3.3702   -4.5448   11.6865 C.3       1 <0>         0.0434
     32 O2         -2.3479   -5.3224   12.3128 O.3       1 <0>        -0.5819
     33 Cl1        -0.2098    9.6671    4.2940 Cl        1 <0>        -0.0466
     34 H1          2.7157    6.0184    1.1617 H         1 <0>         0.0770
     35 H2          4.2843    6.8074    1.4538 H         1 <0>         0.0791
     36 H3          3.3325    6.1847    2.8230 H         1 <0>         0.0631
     37 H4          3.6468    8.8665    0.3335 H         1 <0>         0.1380
     38 H5          2.5166   11.0428    0.5336 H         1 <0>         0.1401
     39 H6          0.8165   11.3966    2.2780 H         1 <0>         0.1410
     40 H7          1.0508    6.2723    3.4722 H         1 <0>         0.4077
     41 H8          1.2191    7.1146    8.0429 H         1 <0>         0.2016
     42 H9          0.3494    1.9517    7.1163 H         1 <0>         0.4545
     43 H10        -0.2756    0.3590    8.8607 H         1 <0>         0.1860
     44 H11         1.4581    4.3621   12.5724 H         1 <0>         0.1309
     45 H12         0.1613    5.2760   11.7653 H         1 <0>         0.1358
     46 H13        -0.2267    4.1885   13.1199 H         1 <0>         0.1083
     47 H14        -0.1795   -1.0367   13.3215 H         1 <0>         0.1249
     48 H15        -1.0392    0.5259   13.3352 H         1 <0>         0.1232
     49 H16        -2.5028   -1.4138   14.0090 H         1 <0>         0.1602
     50 H17        -3.0999   -0.5526   12.5701 H         1 <0>         0.1410
     51 H18        -2.1110   -3.0537   10.1885 H         1 <0>         0.1585
     52 H19        -2.8811   -1.4682   10.4370 H         1 <0>         0.1418
     53 H20        -0.6550   -1.1179    9.4992 H         1 <0>         0.1416
     54 H21         0.0756   -2.1281   10.7747 H         1 <0>         0.1211
     55 H22        -3.6469   -3.3459   13.4548 H         1 <0>         0.1465
     56 H23        -4.3202   -2.6321   11.9697 H         1 <0>         0.1464
     57 H24        -4.3221   -5.0710   11.7578 H         1 <0>         0.1026
     58 H25        -3.1180   -4.3904   10.6374 H         1 <0>         0.0719
     59 H26        -2.2211   -6.1961   11.9183 H         1 <0>         0.4154
     60 H27        -0.2308    1.8869   12.7032 H         1 <0>         0.4393
     61 H28        -1.4578   -2.9831   12.5075 H         1 <0>         0.4359
@<TRIPOS>BOND
     1    1    2 1
     2    1   34 1
     3    1   35 1
     4    1   36 1
     5    2    7 ar
     6    2    3 ar
     7    3    4 ar
     8    3   37 1
     9    4    5 ar
    10    4   38 1
    11    5    6 ar
    12    5   39 1
    13    6    7 ar
    14    6   33 1
    15    7    8 1
    16    8    9 am
    17    8   40 1
    18    9   10 2
    19    9   11 1
    20   11   15 1
    21   11   12 2
    22   12   13 1
    23   12   41 1
    24   13   14 2
    25   14   15 1
    26   14   16 1
    27   16   17 1
    28   16   42 1
    29   17   18 ar
    30   17   22 ar
    31   18   43 1
    32   18   19 ar
    33   19   24 1
    34   19   20 ar
    35   20   60 1
    36   20   21 ar
    37   21   23 1
    38   21   22 ar
    39   23   44 1
    40   23   45 1
    41   23   46 1
    42   24   29 1
    43   24   25 1
    44   25   26 1
    45   25   47 1
    46   25   48 1
    47   26   27 1
    48   26   49 1
    49   26   50 1
    50   27   28 1
    51   27   30 1
    52   27   61 1
    53   28   29 1
    54   28   51 1
    55   28   52 1
    56   29   53 1
    57   29   54 1
    58   30   31 1
    59   30   55 1
    60   30   56 1
    61   31   32 1
    62   31   57 1
    63   31   58 1
    64   32   59 1
@<TRIPOS>MOLECULE
CHEMBL1421__3
   59    62     0     0     0
SMALL
USER_CHARGES

@<TRIPOS>ATOM
      1 C1          3.3957    6.6541    1.8846 C.3       1 <0>        -0.1166
      2 C2          2.6765    7.9747    1.9828 C.ar      1 <0>        -0.0851
      3 C3          2.9953    9.0018    1.1154 C.ar      1 <0>        -0.1055
      4 C4          2.3363   10.2139    1.2044 C.ar      1 <0>        -0.1070
      5 C5          1.3559   10.4031    2.1614 C.ar      1 <0>        -0.1064
      6 C6          1.0323    9.3804    3.0324 C.ar      1 <0>        -0.0243
      7 C7          1.6890    8.1585    2.9411 C.ar      1 <0>         0.1460
      8 N1          1.3596    7.1184    3.8167 N.am      1 <0>        -0.6734
      9 C8          1.3468    7.3357    5.1468 C.2       1 <0>         0.6131
     10 O1          1.5224    8.4593    5.5818 O.2       1 <0>        -0.4899
     11 C9          1.1219    6.2221    6.0675 C.2       1 <0>        -0.3092
     12 C10         1.0631    6.2164    7.4543 C.2       1 <0>         0.1722
     13 N2          0.8449    5.0572    8.0222 N.2       1 <0>        -0.5179
     14 C11         0.6902    3.9568    7.3075 C.2       1 <0>         0.3122
     15 S1          0.8391    4.4936    5.7194 S.3       1 <0>         0.1339
     16 N3          0.4559    2.6723    7.7567 N.pl3     1 <0>        -0.5904
     17 C12         0.2485    2.4367    9.1094 C.ar      1 <0>         0.4415
     18 C13        -0.0983    1.1669    9.5596 C.ar      1 <0>        -0.3413
     19 C14        -0.2952    0.9826   10.9250 C.ar      1 <0>         0.4685
     20 N4         -0.1457    2.0210   11.7454 N.ar      1 <0>        -0.5922
     21 C15         0.1836    3.2084   11.2797 C.ar      1 <0>         0.3947
     22 N5          0.3840    3.4217    9.9951 N.ar      1 <0>        -0.5460
     23 C16         0.3420    4.3547   12.2451 C.3       1 <0>        -0.0834
     24 N6         -0.6424   -0.2634   11.4237 N.pl3     1 <0>        -0.5966
     25 C17        -1.0590   -0.4265   12.8248 C.3       1 <0>         0.1301
     26 C18        -2.3852   -1.1937   12.8521 C.3       1 <0>         0.0401
     27 N7         -2.2386   -2.4458   12.0979 N.3       1 <0>        -0.5276
     28 C19        -1.9479   -2.1841   10.6820 C.3       1 <0>         0.0364
     29 C20        -0.6096   -1.4564   10.5641 C.3       1 <0>         0.1269
     30 C21        -3.4316   -3.2906   12.2431 C.3       1 <0>         0.0538
     31 C22        -3.1492   -4.6764   11.6595 C.3       1 <0>         0.0792
     32 O2         -2.1337   -5.3205   12.4316 O.3       1 <0>        -0.5589
     33 Cl1        -0.1979    9.6184    4.2338 Cl        1 <0>        -0.0432
     34 H1          2.8613    5.9996    1.1960 H         1 <0>         0.0754
     35 H2          4.4087    6.8185    1.5172 H         1 <0>         0.0754
     36 H3          3.4374    6.1889    2.8695 H         1 <0>         0.0676
     37 H4          3.7606    8.8577    0.3671 H         1 <0>         0.1337
     38 H5          2.5880   11.0150    0.5252 H         1 <0>         0.1350
     39 H6          0.8430   11.3512    2.2282 H         1 <0>         0.1371
     40 H7          1.1404    6.2407    3.4666 H         1 <0>         0.4085
     41 H8          1.1907    7.1190    8.0333 H         1 <0>         0.1884
     42 H9          0.4362    1.9344    7.1273 H         1 <0>         0.4386
     43 H10        -0.2121    0.3456    8.8676 H         1 <0>         0.1413
     44 H11         1.3750    4.3992   12.5900 H         1 <0>         0.0870
     45 H12         0.0853    5.2888   11.7453 H         1 <0>         0.0890
     46 H13        -0.3198    4.2054   13.0982 H         1 <0>         0.0846
     47 H14        -0.3000   -0.9879   13.3695 H         1 <0>         0.0744
     48 H15        -1.1933    0.5532   13.2832 H         1 <0>         0.1008
     49 H16        -2.6534   -1.4200   13.8841 H         1 <0>         0.0903
     50 H17        -3.1670   -0.5850   12.3979 H         1 <0>         0.0372
     51 H18        -1.8989   -3.1286   10.1401 H         1 <0>         0.0905
     52 H19        -2.7358   -1.5615   10.2580 H         1 <0>         0.0380
     53 H20        -0.4469   -1.1573    9.5286 H         1 <0>         0.0877
     54 H21         0.1935   -2.1187   10.8874 H         1 <0>         0.0802
     55 H22        -3.6832   -3.3855   13.2994 H         1 <0>         0.0861
     56 H23        -4.2663   -2.8352   11.7102 H         1 <0>         0.0487
     57 H24        -4.0601   -5.2745   11.6863 H         1 <0>         0.0498
     58 H25        -2.8116   -4.5745   10.6281 H         1 <0>         0.0451
     59 H26        -1.9032   -6.2057   12.1180 H         1 <0>         0.3762
@<TRIPOS>BOND
     1    1    2 1
     2    1   34 1
     3    1   35 1
     4    1   36 1
     5    2    7 ar
     6    2    3 ar
     7    3    4 ar
     8    3   37 1
     9    4    5 ar
    10    4   38 1
    11    5    6 ar
    12    5   39 1
    13    6    7 ar
    14    6   33 1
    15    7    8 1
    16    8    9 am
    17    8   40 1
    18    9   10 2
    19    9   11 1
    20   11   15 1
    21   11   12 2
    22   12   13 1
    23   12   41 1
    24   13   14 2
    25   14   15 1
    26   14   16 1
    27   16   17 1
    28   16   42 1
    29   17   22 ar
    30   17   18 ar
    31   18   19 ar
    32   18   43 1
    33   19   20 ar
    34   19   24 1
    35   20   21 ar
    36   21   22 ar
    37   21   23 1
    38   23   44 1
    39   23   45 1
    40   23   46 1
    41   24   29 1
    42   24   25 1
    43   25   26 1
    44   25   47 1
    45   25   48 1
    46   26   27 1
    47   26   49 1
    48   26   50 1
    49   27   28 1
    50   27   30 1
    51   28   29 1
    52   28   51 1
    53   28   52 1
    54   29   53 1
    55   29   54 1
    56   30   31 1
    57   30   55 1
    58   30   56 1
    59   31   32 1
    60   31   57 1
    61   31   58 1
    62   32   59 1
@<TRIPOS>MOLECULE
CHEMBL1421__4
   60    63     0     0     0
SMALL
USER_CHARGES

@<TRIPOS>ATOM
      1 C1          3.2739    6.6585    1.8418 C.3       1 <0>        -0.1168
      2 C2          2.5810    7.9910    1.9663 C.ar      1 <0>        -0.0823
      3 C3          2.8983    9.0189    1.0995 C.ar      1 <0>        -0.1038
      4 C4          2.2635   10.2419    1.2126 C.ar      1 <0>        -0.1008
      5 C5          1.3088   10.4411    2.1933 C.ar      1 <0>        -0.1049
      6 C6          0.9869    9.4175    3.0639 C.ar      1 <0>        -0.0226
      7 C7          1.6192    8.1849    2.9486 C.ar      1 <0>         0.1373
      8 N1          1.2913    7.1440    3.8238 N.am      1 <0>        -0.6678
      9 C8          1.3128    7.3511    5.1554 C.2       1 <0>         0.6036
     10 O1          1.5184    8.4680    5.5945 O.2       1 <0>        -0.4759
     11 C9          1.0891    6.2346    6.0728 C.2       1 <0>        -0.2694
     12 C10         1.0619    6.2190    7.4604 C.2       1 <0>         0.1522
     13 N2          0.8357    5.0596    8.0247 N.2       1 <0>        -0.5060
     14 C11         0.6446    3.9678    7.3056 C.2       1 <0>         0.2464
     15 S1          0.7674    4.5141    5.7185 S.3       1 <0>         0.2029
     16 N3          0.3973    2.6842    7.7505 N.pl3     1 <0>        -0.5650
     17 C12         0.2197    2.4414    9.1063 C.ar      1 <0>         0.4999
     18 C13        -0.1342    1.1736    9.5555 C.ar      1 <0>        -0.3181
     19 C14        -0.3003    0.9817   10.9244 C.ar      1 <0>         0.4940
     20 N4         -0.1157    2.0114   11.7481 N.ar      1 <0>        -0.5712
     21 C15         0.2193    3.1978   11.2829 C.ar      1 <0>         0.4509
     22 N5          0.3911    3.4178    9.9956 N.ar      1 <0>        -0.4879
     23 C16         0.4179    4.3344   12.2523 C.3       1 <0>        -0.1253
     24 N6         -0.6531   -0.2629   11.4224 N.pl3     1 <0>        -0.5744
     25 C17        -0.9639   -0.4449   12.8484 C.3       1 <0>         0.1013
     26 C18        -2.3114   -1.1652   12.9649 C.3       1 <0>         0.0387
     27 N7         -2.2712   -2.4031   12.1749 N.3       1 <0>        -0.5277
     28 C19        -2.0835   -2.1176   10.7462 C.3       1 <0>         0.0305
     29 C20        -0.7325   -1.4351   10.5377 C.3       1 <0>         0.1149
     30 C21        -3.4796   -3.2085   12.3965 C.3       1 <0>         0.0543
     31 C22        -3.2958   -4.5889   11.7629 C.3       1 <0>         0.0774
     32 O2         -2.2472   -5.2869   12.4378 O.3       1 <0>        -0.5615
     33 Cl1        -0.2110    9.6681    4.2952 Cl        1 <0>        -0.0453
     34 H1          2.7121    6.0191    1.1609 H         1 <0>         0.0767
     35 H2          4.2810    6.8077    1.4524 H         1 <0>         0.0779
     36 H3          3.3298    6.1850    2.8220 H         1 <0>         0.0648
     37 H4          3.6435    8.8670    0.3327 H         1 <0>         0.1365
     38 H5          2.5139   11.0437    0.5337 H         1 <0>         0.1383
     39 H6          0.8148   11.3976    2.2790 H         1 <0>         0.1396
     40 H7          1.0484    6.2731    3.4723 H         1 <0>         0.4083
     41 H8          1.2191    7.1147    8.0430 H         1 <0>         0.1979
     42 H9          0.3477    1.9521    7.1161 H         1 <0>         0.4525
     43 H10        -0.2767    0.3593    8.8606 H         1 <0>         0.1835
     44 H11         1.4596    4.3615   12.5720 H         1 <0>         0.1250
     45 H12         0.1626    5.2758   11.7656 H         1 <0>         0.1301
     46 H13        -0.2249    4.1881   13.1203 H         1 <0>         0.1049
     47 H14        -0.1857   -1.0458   13.3190 H         1 <0>         0.1119
     48 H15        -1.0251    0.5276   13.3369 H         1 <0>         0.0843
     49 H16        -2.5057   -1.4068   14.0099 H         1 <0>         0.1076
     50 H17        -3.1034   -0.5184   12.5874 H         1 <0>         0.0465
     51 H18        -2.1124   -3.0499   10.1822 H         1 <0>         0.1076
     52 H19        -2.8786   -1.4576   10.3996 H         1 <0>         0.0467
     53 H20        -0.6409   -1.1170    9.4992 H         1 <0>         0.1034
     54 H21         0.0684   -2.1330   10.7819 H         1 <0>         0.1075
     55 H22        -3.6507   -3.3200   13.4672 H         1 <0>         0.0925
     56 H23        -4.3362   -2.7111   11.9416 H         1 <0>         0.0553
     57 H24        -4.2233   -5.1548   11.8494 H         1 <0>         0.0565
     58 H25        -3.0370   -4.4741   10.7103 H         1 <0>         0.0456
     59 H26        -2.0752   -6.1719   12.0881 H         1 <0>         0.3821
     60 H27        -0.2297    1.8867   12.7033 H         1 <0>         0.4392
@<TRIPOS>BOND
     1    1    2 1
     2    1   34 1
     3    1   35 1
     4    1   36 1
     5    2    7 ar
     6    2    3 ar
     7    3    4 ar
     8    3   37 1
     9    4    5 ar
    10    4   38 1
    11    5    6 ar
    12    5   39 1
    13    6    7 ar
    14    6   33 1
    15    7    8 1
    16    8    9 am
    17    8   40 1
    18    9   10 2
    19    9   11 1
    20   11   15 1
    21   11   12 2
    22   12   13 1
    23   12   41 1
    24   13   14 2
    25   14   15 1
    26   14   16 1
    27   16   17 1
    28   16   42 1
    29   17   18 ar
    30   17   22 ar
    31   18   43 1
    32   18   19 ar
    33   19   24 1
    34   19   20 ar
    35   20   60 1
    36   20   21 ar
    37   21   23 1
    38   21   22 ar
    39   23   44 1
    40   23   45 1
    41   23   46 1
    42   24   29 1
    43   24   25 1
    44   25   26 1
    45   25   47 1
    46   25   48 1
    47   26   27 1
    48   26   49 1
    49   26   50 1
    50   27   28 1
    51   27   30 1
    52   28   29 1
    53   28   51 1
    54   28   52 1
    55   29   53 1
    56   29   54 1
    57   30   31 1
    58   30   55 1
    59   30   56 1
    60   31   32 1
    61   31   57 1
    62   31   58 1
    63   32   59 1
@<TRIPOS>MOLECULE
CHEMBL1076482
   72    77     0     0     0
SMALL
USER_CHARGES

@<TRIPOS>ATOM
      1 C1          0.0036    2.6464    0.9659 C.3       1 <0>        -0.0456
      2 N1         -0.1253    1.1876    0.8507 N.4       1 <0>        -0.3883
      3 C2         -1.5432    0.8134    0.9350 C.3       1 <0>        -0.0021
      4 C3         -1.6795   -0.7044    0.7962 C.3       1 <0>         0.0245
      5 N2         -0.9170   -1.3619    1.8669 N.3       1 <0>        -0.5338
      6 C4          0.5003   -0.9771    1.8103 C.3       1 <0>         0.0199
      7 C5          0.6187    0.5430    1.9408 C.3       1 <0>        -0.0023
      8 C6         -1.0693   -2.8215    1.8017 C.3       1 <0>         0.1001
      9 C7         -0.4847   -3.4436    3.0436 C.ar      1 <0>        -0.1040
     10 C8          0.8494   -3.8095    3.0683 C.ar      1 <0>        -0.1149
     11 C9          1.3904   -4.3794    4.2024 C.ar      1 <0>        -0.1120
     12 C10         0.5896   -4.5861    5.3256 C.ar      1 <0>         0.0293
     13 C11        -0.7545   -4.2147    5.2946 C.ar      1 <0>        -0.0958
     14 C12        -1.2828   -3.6412    4.1562 C.ar      1 <0>        -0.0896
     15 C13         1.1641   -5.1979    6.5461 C.2       1 <0>        -0.2155
     16 C14         1.9246   -6.3705    6.6074 C.2       1 <0>         0.1093
     17 N3          2.2562   -6.5958    7.8558 N.2       1 <0>        -0.2962
     18 N4          1.7281   -5.5828    8.6629 N.pl3     1 <0>        -0.3013
     19 C15         1.0523   -4.7069    7.8537 C.2       1 <0>         0.2813
     20 N5          0.4472   -3.6310    8.3642 N.2       1 <0>        -0.4661
     21 C16         0.4821   -3.3755    9.6531 C.2       1 <0>         0.1884
     22 C17         1.1594   -4.2316   10.5249 C.2       1 <0>        -0.2126
     23 C18         1.7831   -5.3528   10.0165 C.2       1 <0>         0.2513
     24 C19         2.5104   -6.2790   10.9084 C.ar      1 <0>        -0.0603
     25 C20         3.8960   -6.4167   10.7964 C.ar      1 <0>        -0.0847
     26 C21         4.5726   -7.2825   11.6306 C.ar      1 <0>        -0.0951
     27 C22         3.8841   -8.0161   12.5790 C.ar      1 <0>        -0.1179
     28 C23         2.5054   -7.8869   12.6983 C.ar      1 <0>         0.1480
     29 C24         1.8166   -7.0150   11.8692 C.ar      1 <0>        -0.0823
     30 N6          1.8137   -8.6317   13.6591 N.am      1 <0>        -0.6684
     31 C25         0.5602   -9.0579   13.4072 C.2       1 <0>         0.5639
     32 O1          0.0660   -8.8788   12.3111 O.2       1 <0>        -0.5075
     33 C26        -0.2138   -9.7432   14.4638 C.ar      1 <0>        -0.1411
     34 C27         0.3487   -9.9454   15.7255 C.ar      1 <0>        -0.0535
     35 C28        -0.3791  -10.5851   16.7071 C.ar      1 <0>        -0.1219
     36 C29        -1.6640  -11.0262   16.4436 C.ar      1 <0>        -0.0401
     37 C30        -2.2273  -10.8290   15.1956 C.ar      1 <0>        -0.1879
     38 C31        -1.5121  -10.1858   14.2063 C.ar      1 <0>        -0.0066
     39 C32        -3.6271  -11.3131   14.9175 C.3       1 <0>         0.5099
     40 F1         -4.1457  -11.9237   16.0643 F         1 <0>        -0.1731
     41 F2         -4.4341  -10.2271   14.5619 F         1 <0>        -0.1731
     42 F3         -3.6008  -12.2379   13.8681 F         1 <0>        -0.1723
     43 H1          1.0556    2.9243    0.9020 H         1 <0>         0.1236
     44 H2         -0.5484    3.1249    0.1570 H         1 <0>         0.1238
     45 H3         -0.4008    2.9723    1.9242 H         1 <0>         0.1229
     46 H4         -1.9452    1.1277    1.8982 H         1 <0>         0.1374
     47 H5         -2.0964    1.3027    0.1334 H         1 <0>         0.1353
     48 H6         -2.7303   -0.9838    0.8737 H         1 <0>         0.1238
     49 H7         -1.2901   -1.0174   -0.1726 H         1 <0>         0.0602
     50 H8          1.0399   -1.4554    2.6277 H         1 <0>         0.1280
     51 H9          0.9257   -1.2946    0.8583 H         1 <0>         0.0596
     52 H10         1.6683    0.8318    1.8849 H         1 <0>         0.1346
     53 H11         0.2056    0.8586    2.8989 H         1 <0>         0.1374
     54 H12        -2.1274   -3.0737    1.7326 H         1 <0>         0.0955
     55 H13        -0.5469   -3.2025    0.9241 H         1 <0>         0.0543
     56 H14         1.4684   -3.6489    2.1980 H         1 <0>         0.1169
     57 H15         2.4318   -4.6653    4.2202 H         1 <0>         0.1240
     58 H16        -1.3796   -4.3725    6.1611 H         1 <0>         0.1226
     59 H17        -2.3223   -3.3494    4.1325 H         1 <0>         0.1226
     60 H18         2.1943   -6.9892    5.7643 H         1 <0>         0.2002
     61 H19        -0.0155   -2.4986   10.0403 H         1 <0>         0.1857
     62 H20         1.1892   -4.0221   11.5840 H         1 <0>         0.1712
     63 H21         4.4374   -5.8457   10.0567 H         1 <0>         0.1258
     64 H22         5.6439   -7.3879   11.5423 H         1 <0>         0.1385
     65 H23         4.4194   -8.6923   13.2291 H         1 <0>         0.1356
     66 H24         0.7459   -6.9093   11.9638 H         1 <0>         0.1411
     67 H25         2.2362   -8.8416   14.5066 H         1 <0>         0.4144
     68 H26         1.3516   -9.6020   15.9323 H         1 <0>         0.1376
     69 H27         0.0550  -10.7425   17.6835 H         1 <0>         0.1479
     70 H28        -2.2294  -11.5268   17.2156 H         1 <0>         0.1489
     71 H29        -1.9547  -10.0285   13.2338 H         1 <0>         0.1489
     72 H30         0.2495    0.8860   -0.0363 H         1 <0>         0.4219
@<TRIPOS>BOND
     1    1    2 1
     2    1   43 1
     3    1   44 1
     4    1   45 1
     5    2    7 1
     6    2    3 1
     7    2   72 1
     8    3    4 1
     9    3   46 1
    10    3   47 1
    11    4    5 1
    12    4   48 1
    13    4   49 1
    14    5    6 1
    15    5    8 1
    16    6    7 1
    17    6   50 1
    18    6   51 1
    19    7   52 1
    20    7   53 1
    21    8    9 1
    22    8   54 1
    23    8   55 1
    24    9   14 ar
    25    9   10 ar
    26   10   11 ar
    27   10   56 1
    28   11   12 ar
    29   11   57 1
    30   12   13 ar
    31   12   15 1
    32   13   14 ar
    33   13   58 1
    34   14   59 1
    35   15   19 2
    36   15   16 1
    37   16   17 2
    38   16   60 1
    39   17   18 1
    40   18   23 1
    41   18   19 1
    42   19   20 1
    43   20   21 2
    44   21   22 1
    45   21   61 1
    46   22   23 2
    47   22   62 1
    48   23   24 1
    49   24   29 ar
    50   24   25 ar
    51   25   26 ar
    52   25   63 1
    53   26   27 ar
    54   26   64 1
    55   27   28 ar
    56   27   65 1
    57   28   29 ar
    58   28   30 1
    59   29   66 1
    60   30   31 am
    61   30   67 1
    62   31   32 2
    63   31   33 1
    64   33   38 ar
    65   33   34 ar
    66   34   35 ar
    67   34   68 1
    68   35   36 ar
    69   35   69 1
    70   36   37 ar
    71   36   70 1
    72   37   38 ar
    73   37   39 1
    74   38   71 1
    75   39   40 1
    76   39   41 1
    77   39   42 1
@<TRIPOS>MOLECULE
CHEMBL1076482__1
   72    77     0     0     0
SMALL
USER_CHARGES

@<TRIPOS>ATOM
      1 C1         -0.0329    2.5787    1.0232 C.3       1 <0>         0.0196
      2 N1         -0.1569    1.1188    0.9163 N.3       1 <0>        -0.5433
      3 C2         -1.5680    0.7080    0.9251 C.3       1 <0>         0.0245
      4 C3         -1.6553   -0.8100    0.7524 C.3       1 <0>        -0.0026
      5 N2         -0.9286   -1.4699    1.8450 N.4       1 <0>        -0.3852
      6 C4          0.4840   -1.0690    1.8082 C.3       1 <0>        -0.0063
      7 C5          0.5891    0.4469    1.9897 C.3       1 <0>         0.0260
      8 C6         -1.0279   -2.9272    1.6889 C.3       1 <0>         0.0479
      9 C7         -0.3885   -3.6041    2.8738 C.ar      1 <0>        -0.1743
     10 C8          0.9584   -3.9187    2.8434 C.ar      1 <0>        -0.0912
     11 C9          1.5495   -4.5385    3.9252 C.ar      1 <0>        -0.1122
     12 C10         0.7863   -4.8475    5.0511 C.ar      1 <0>         0.0624
     13 C11        -0.5711   -4.5274    5.0758 C.ar      1 <0>        -0.0974
     14 C12        -1.1496   -3.9033    3.9897 C.ar      1 <0>        -0.0872
     15 C13         1.4147   -5.5133    6.2155 C.2       1 <0>        -0.2357
     16 C14         2.2197   -6.6569    6.1828 C.2       1 <0>         0.1158
     17 N3          2.5916   -6.9485    7.4058 N.2       1 <0>        -0.2930
     18 N4          2.0472   -6.0104    8.2891 N.pl3     1 <0>        -0.2999
     19 C15         1.3185   -5.1116    7.5545 C.2       1 <0>         0.2903
     20 N5          0.6871   -4.0948    8.1478 N.2       1 <0>        -0.4731
     21 C16         0.7458   -3.9211    9.4493 C.2       1 <0>         0.1953
     22 C17         1.4769   -4.8042   10.2477 C.2       1 <0>        -0.2114
     23 C18         2.1287   -5.8654    9.6531 C.2       1 <0>         0.2562
     24 C19         2.9128   -6.8178   10.4658 C.ar      1 <0>        -0.0643
     25 C20         4.2992   -6.8941   10.3127 C.ar      1 <0>        -0.0842
     26 C21         5.0291   -7.7845   11.0729 C.ar      1 <0>        -0.0944
     27 C22         4.3931   -8.6034   11.9875 C.ar      1 <0>        -0.1162
     28 C23         3.0141   -8.5357   12.1472 C.ar      1 <0>         0.1488
     29 C24         2.2720   -7.6401   11.3928 C.ar      1 <0>        -0.0817
     30 N6          2.3758   -9.3668   13.0737 N.am      1 <0>        -0.6686
     31 C25         1.1329   -9.8245   12.8241 C.2       1 <0>         0.5649
     32 O1          0.6042   -9.5950   11.7538 O.2       1 <0>        -0.5088
     33 C26         0.4127  -10.6055   13.8519 C.ar      1 <0>        -0.1420
     34 C27         1.0148  -10.8659   15.0843 C.ar      1 <0>        -0.0533
     35 C28         0.3371  -11.5949   16.0391 C.ar      1 <0>        -0.1215
     36 C29        -0.9369  -12.0678   15.7777 C.ar      1 <0>        -0.0396
     37 C30        -1.5393  -11.8133   14.5587 C.ar      1 <0>        -0.1879
     38 C31        -0.8745  -11.0809   13.5967 C.ar      1 <0>        -0.0066
     39 C32        -2.9267  -12.3327   14.2826 C.3       1 <0>         0.5099
     40 F1         -3.3924  -13.0351   15.3993 F         1 <0>        -0.1728
     41 F2         -3.7826  -11.2584   14.0172 F         1 <0>        -0.1732
     42 F3         -2.8932  -13.1869   13.1752 F         1 <0>        -0.1724
     43 H1          1.0174    2.8606    0.9483 H         1 <0>         0.0837
     44 H2         -0.5942    3.0510    0.2170 H         1 <0>         0.0834
     45 H3         -0.4298    2.9077    1.9836 H         1 <0>         0.0389
     46 H4         -2.0238    0.9929    1.8733 H         1 <0>         0.0597
     47 H5         -2.0946    1.1981    0.1062 H         1 <0>         0.1232
     48 H6         -2.7005   -1.1184    0.7729 H         1 <0>         0.1356
     49 H7         -1.2116   -1.0931   -0.2021 H         1 <0>         0.1377
     50 H8          1.0248   -1.5694    2.6114 H         1 <0>         0.1368
     51 H9          0.9167   -1.3508    0.8483 H         1 <0>         0.1364
     52 H10         1.6363    0.7465    1.9475 H         1 <0>         0.1221
     53 H11         0.1688    0.7275    2.9555 H         1 <0>         0.0595
     54 H12        -2.0774   -3.2154    1.6284 H         1 <0>         0.1356
     55 H13        -0.5146   -3.2306    0.7764 H         1 <0>         0.1351
     56 H14         1.5483   -3.6789    1.9711 H         1 <0>         0.1307
     57 H15         2.6009   -4.7842    3.9001 H         1 <0>         0.1345
     58 H16        -1.1672   -4.7645    5.9445 H         1 <0>         0.1314
     59 H17        -2.1996   -3.6513    4.0092 H         1 <0>         0.1292
     60 H18         2.4904   -7.2095    5.2953 H         1 <0>         0.2019
     61 H19         0.2260   -3.0908    9.9041 H         1 <0>         0.1879
     62 H20         1.5263   -4.6618   11.3171 H         1 <0>         0.1737
     63 H21         4.7996   -6.2563    9.5990 H         1 <0>         0.1260
     64 H22         6.1008   -7.8422   10.9529 H         1 <0>         0.1394
     65 H23         4.9700   -9.2984   12.5797 H         1 <0>         0.1365
     66 H24         1.2010   -7.5824   11.5192 H         1 <0>         0.1412
     67 H25         2.8277   -9.6138   13.8957 H         1 <0>         0.4150
     68 H26         2.0092  -10.4976   15.2894 H         1 <0>         0.1377
     69 H27         0.8018  -11.7973   16.9928 H         1 <0>         0.1483
     70 H28        -1.4631  -12.6384   16.5287 H         1 <0>         0.1492
     71 H29        -1.3476  -10.8791   12.6471 H         1 <0>         0.1487
     72 H30        -1.3321   -1.1985    2.7291 H         1 <0>         0.4196
@<TRIPOS>BOND
     1    1    2 1
     2    1   43 1
     3    1   44 1
     4    1   45 1
     5    2    7 1
     6    2    3 1
     7    3    4 1
     8    3   46 1
     9    3   47 1
    10    4    5 1
    11    4   48 1
    12    4   49 1
    13    5    6 1
    14    5    8 1
    15    5   72 1
    16    6    7 1
    17    6   50 1
    18    6   51 1
    19    7   52 1
    20    7   53 1
    21    8    9 1
    22    8   54 1
    23    8   55 1
    24    9   14 ar
    25    9   10 ar
    26   10   11 ar
    27   10   56 1
    28   11   12 ar
    29   11   57 1
    30   12   13 ar
    31   12   15 1
    32   13   14 ar
    33   13   58 1
    34   14   59 1
    35   15   19 2
    36   15   16 1
    37   16   17 2
    38   16   60 1
    39   17   18 1
    40   18   23 1
    41   18   19 1
    42   19   20 1
    43   20   21 2
    44   21   22 1
    45   21   61 1
    46   22   23 2
    47   22   62 1
    48   23   24 1
    49   24   29 ar
    50   24   25 ar
    51   25   26 ar
    52   25   63 1
    53   26   27 ar
    54   26   64 1
    55   27   28 ar
    56   27   65 1
    57   28   29 ar
    58   28   30 1
    59   29   66 1
    60   30   31 am
    61   30   67 1
    62   31   32 2
    63   31   33 1
    64   33   38 ar
    65   33   34 ar
    66   34   35 ar
    67   34   68 1
    68   35   36 ar
    69   35   69 1
    70   36   37 ar
    71   36   70 1
    72   37   38 ar
    73   37   39 1
    74   38   71 1
    75   39   40 1
    76   39   41 1
    77   39   42 1
@<TRIPOS>MOLECULE
CHEMBL574738
   69    72     0     0     0
SMALL
USER_CHARGES

@<TRIPOS>ATOM
      1 C1         -1.8363    1.8103   -1.4722 C.3       1 <0>        -0.1886
      2 C2         -1.6365    0.2944   -1.4178 C.3       1 <0>        -0.0094
      3 N1         -2.9083   -0.3550   -1.0733 N.4       1 <0>        -0.3871
      4 C3         -3.3047    0.0354    0.2861 C.3       1 <0>        -0.0052
      5 C4         -4.6389   -0.6260    0.6384 C.3       1 <0>         0.0283
      6 N2         -4.4966   -2.0863    0.5514 N.3       1 <0>        -0.5297
      7 C5         -4.0759   -2.4902   -0.7977 C.3       1 <0>         0.0223
      8 C6         -2.7463   -1.8135   -1.1381 C.3       1 <0>        -0.0008
      9 C7         -5.7431   -2.7606    0.9381 C.3       1 <0>         0.0809
     10 C8         -5.4922   -4.2403    1.0747 C.ar      1 <0>        -0.0649
     11 C9         -5.8432   -5.0974    0.0476 C.ar      1 <0>        -0.0933
     12 C10        -5.6142   -6.4537    0.1696 C.ar      1 <0>        -0.0875
     13 C11        -5.0308   -6.9569    1.3252 C.ar      1 <0>         0.1812
     14 C12        -4.6796   -6.0937    2.3545 C.ar      1 <0>        -0.1024
     15 C13        -4.9064   -4.7374    2.2242 C.ar      1 <0>        -0.1362
     16 C14        -4.5199   -3.7991    3.3383 C.3       1 <0>         0.5103
     17 F1         -3.9503   -4.5296    4.3867 F         1 <0>        -0.1764
     18 F2         -3.5923   -2.8665    2.8619 F         1 <0>        -0.1629
     19 F3         -5.6583   -3.1301    3.8007 F         1 <0>        -0.1766
     20 N3         -4.7978   -8.3308    1.4521 N.am      1 <0>        -0.6826
     21 C15        -4.4882   -9.0650    0.3651 C.2       1 <0>         0.7088
     22 O1         -4.3176   -8.5199   -0.7083 O.2       1 <0>        -0.5536
     23 N4         -4.3676  -10.4034    0.4679 N.am      1 <0>        -0.6758
     24 C16        -3.9415  -11.1553   -0.6351 C.ar      1 <0>         0.1613
     25 C17        -3.0319  -10.6150   -1.5342 C.ar      1 <0>        -0.1044
     26 C18        -2.6123  -11.3563   -2.6210 C.ar      1 <0>        -0.0920
     27 C19        -3.0999  -12.6406   -2.8148 C.ar      1 <0>         0.0838
     28 C20        -4.0092  -13.1809   -1.9170 C.ar      1 <0>        -0.0898
     29 C21        -4.4244  -12.4429   -0.8262 C.ar      1 <0>        -0.1275
     30 O2         -2.6868  -13.3700   -3.8854 O.3       1 <0>        -0.2419
     31 C22        -1.4475  -13.9171   -3.8425 C.ar      1 <0>         0.3843
     32 C23        -0.9333  -14.5842   -4.9476 C.ar      1 <0>        -0.3092
     33 C24         0.3448  -15.1285   -4.8538 C.ar      1 <0>         0.4598
     34 N5          1.0234  -14.9910   -3.7165 N.ar      1 <0>        -0.5925
     35 C25         0.5000  -14.3508   -2.6911 C.ar      1 <0>         0.3761
     36 N6         -0.7041  -13.8182   -2.7438 N.ar      1 <0>        -0.6017
     37 N7          0.9023  -15.8038   -5.9283 N.pl3     1 <0>        -0.7108
     38 C26         0.1458  -15.9492   -7.1744 C.3       1 <0>         0.0880
     39 H1         -0.8926    2.2922   -1.7278 H         1 <0>         0.1065
     40 H2         -2.5838    2.0514   -2.2280 H         1 <0>         0.0795
     41 H3         -2.1748    2.1673   -0.4995 H         1 <0>         0.0804
     42 H4         -1.2980   -0.0626   -2.3904 H         1 <0>         0.1302
     43 H5         -0.8890    0.0533   -0.6620 H         1 <0>         0.1299
     44 H6         -2.5411   -0.2873    0.9940 H         1 <0>         0.1386
     45 H7         -3.4119    1.1189    0.3362 H         1 <0>         0.1368
     46 H8         -4.9259   -0.3484    1.6526 H         1 <0>         0.1238
     47 H9         -5.4058   -0.2930   -0.0610 H         1 <0>         0.0621
     48 H10        -3.9521   -3.5727   -0.8311 H         1 <0>         0.1246
     49 H11        -4.8335   -2.1879   -1.5207 H         1 <0>         0.0622
     50 H12        -2.4395   -2.1006   -2.1439 H         1 <0>         0.1352
     51 H13        -1.9856   -2.1267   -0.4230 H         1 <0>         0.1378
     52 H14        -6.0916   -2.3617    1.8908 H         1 <0>         0.1056
     53 H15        -6.5010   -2.5896    0.1736 H         1 <0>         0.0665
     54 H16        -6.2972   -4.7056   -0.8506 H         1 <0>         0.1368
     55 H17        -5.8888   -7.1226   -0.6327 H         1 <0>         0.1503
     56 H18        -4.2257   -6.4819    3.2544 H         1 <0>         0.1458
     57 H19        -4.8592   -8.7548    2.3223 H         1 <0>         0.4154
     58 H20        -4.5758  -10.8463    1.3054 H         1 <0>         0.4130
     59 H21        -2.6528   -9.6149   -1.3838 H         1 <0>         0.1404
     60 H22        -1.9048  -10.9362   -3.3205 H         1 <0>         0.1293
     61 H23        -4.3889  -14.1804   -2.0687 H         1 <0>         0.1369
     62 H24        -5.1283  -12.8655   -0.1245 H         1 <0>         0.1361
     63 H25        -1.5103  -14.6785   -5.8557 H         1 <0>         0.1488
     64 H26         1.0758  -14.2566   -1.7822 H         1 <0>         0.2008
     65 H27         1.7933  -16.1802   -5.8551 H         1 <0>         0.4136
     66 H28         0.7419  -16.5046   -7.8986 H         1 <0>         0.0865
     67 H29        -0.7804  -16.4886   -6.9763 H         1 <0>         0.0628
     68 H30        -0.0868  -14.9627   -7.5754 H         1 <0>         0.0620
     69 H31        -3.6209   -0.0666   -1.7269 H         1 <0>         0.4195
@<TRIPOS>BOND
     1    1    2 1
     2    1   39 1
     3    1   40 1
     4    1   41 1
     5    2    3 1
     6    2   42 1
     7    2   43 1
     8    3    8 1
     9    3    4 1
    10    3   69 1
    11    4    5 1
    12    4   44 1
    13    4   45 1
    14    5    6 1
    15    5   46 1
    16    5   47 1
    17    6    7 1
    18    6    9 1
    19    7    8 1
    20    7   48 1
    21    7   49 1
    22    8   50 1
    23    8   51 1
    24    9   10 1
    25    9   52 1
    26    9   53 1
    27   10   15 ar
    28   10   11 ar
    29   11   12 ar
    30   11   54 1
    31   12   13 ar
    32   12   55 1
    33   13   14 ar
    34   13   20 1
    35   14   15 ar
    36   14   56 1
    37   15   16 1
    38   16   17 1
    39   16   18 1
    40   16   19 1
    41   20   21 am
    42   20   57 1
    43   21   22 2
    44   21   23 am
    45   23   24 1
    46   23   58 1
    47   24   29 ar
    48   24   25 ar
    49   25   26 ar
    50   25   59 1
    51   26   27 ar
    52   26   60 1
    53   27   28 ar
    54   27   30 1
    55   28   29 ar
    56   28   61 1
    57   29   62 1
    58   30   31 1
    59   31   36 ar
    60   31   32 ar
    61   32   33 ar
    62   32   63 1
    63   33   34 ar
    64   33   37 1
    65   34   35 ar
    66   35   36 ar
    67   35   64 1
    68   37   38 1
    69   37   65 1
    70   38   66 1
    71   38   67 1
    72   38   68 1
@<TRIPOS>MOLECULE
CHEMBL574738__1
   69    72     0     0     0
SMALL
USER_CHARGES

@<TRIPOS>ATOM
      1 C1          0.0759    1.5438    0.6037 C.3       1 <0>        -0.1550
      2 C2          0.0819    0.0240    0.4269 C.3       1 <0>         0.0497
      3 N1         -1.3011   -0.4668    0.3613 N.3       1 <0>        -0.5383
      4 C3         -1.9905   -0.2720    1.6446 C.3       1 <0>         0.0216
      5 C4         -3.4418   -0.7401    1.5167 C.3       1 <0>        -0.0034
      6 N2         -3.4673   -2.1590    1.1380 N.4       1 <0>        -0.3925
      7 C5         -2.7968   -2.3340   -0.1571 C.3       1 <0>        -0.0069
      8 C6         -1.3401   -1.8792   -0.0432 C.3       1 <0>         0.0266
      9 C7         -4.8606   -2.6126    1.0329 C.3       1 <0>         0.0216
     10 C8         -4.8877   -4.0989    0.7859 C.ar      1 <0>        -0.1314
     11 C9         -5.0212   -4.5819   -0.5031 C.ar      1 <0>        -0.0646
     12 C10        -5.0460   -5.9433   -0.7329 C.ar      1 <0>        -0.0851
     13 C11        -4.9367   -6.8279    0.3323 C.ar      1 <0>         0.2104
     14 C12        -4.8028   -6.3399    1.6253 C.ar      1 <0>        -0.0958
     15 C13        -4.7734   -4.9769    1.8479 C.ar      1 <0>        -0.1409
     16 C14        -4.6219   -4.4463    3.2502 C.3       1 <0>         0.5070
     17 F1         -4.6433   -5.5117    4.1567 F         1 <0>        -0.1547
     18 F2         -3.4060   -3.7635    3.3616 F         1 <0>        -0.1851
     19 F3         -5.6759   -3.5713    3.5341 F         1 <0>        -0.1640
     20 N3         -4.9619   -8.2081    0.1029 N.am      1 <0>        -0.6837
     21 C15        -4.4196   -8.7143   -1.0223 C.2       1 <0>         0.7086
     22 O1         -3.8266   -7.9843   -1.7931 O.2       1 <0>        -0.5502
     23 N4         -4.5345  -10.0295   -1.2932 N.am      1 <0>        -0.6719
     24 C16        -3.8805  -10.5754   -2.4057 C.ar      1 <0>         0.1552
     25 C17        -2.6449  -10.0782   -2.7980 C.ar      1 <0>        -0.1020
     26 C18        -2.0009  -10.6166   -3.8944 C.ar      1 <0>        -0.0924
     27 C19        -2.5883  -11.6538   -4.6042 C.ar      1 <0>         0.0887
     28 C20        -3.8231  -12.1507   -4.2129 C.ar      1 <0>        -0.0905
     29 C21        -4.4651  -11.6176   -3.1127 C.ar      1 <0>        -0.1241
     30 O2         -1.9539  -12.1832   -5.6840 O.3       1 <0>        -0.2421
     31 C22        -0.8993  -13.0053   -5.4625 C.ar      1 <0>         0.3838
     32 C23        -0.1485  -13.4903   -6.5263 C.ar      1 <0>        -0.3084
     33 C24         0.9254  -14.3313   -6.2467 C.ar      1 <0>         0.4604
     34 N5          1.1921  -14.6382   -4.9788 N.ar      1 <0>        -0.5919
     35 C25         0.4556  -14.1572   -3.9982 C.ar      1 <0>         0.3765
     36 N6         -0.5651  -13.3548   -4.2232 N.ar      1 <0>        -0.6028
     37 N7          1.7048  -14.8418   -7.2729 N.pl3     1 <0>        -0.7101
     38 C26         1.4012  -14.4974   -8.6641 C.3       1 <0>         0.0876
     39 H1          1.1021    1.9080    0.6524 H         1 <0>         0.0710
     40 H2         -0.4339    2.0059   -0.2417 H         1 <0>         0.0692
     41 H3         -0.4448    1.8002    1.5263 H         1 <0>         0.0560
     42 H4          0.6026   -0.2324   -0.4957 H         1 <0>         0.0890
     43 H5          0.5917   -0.4381    1.2723 H         1 <0>         0.0460
     44 H6         -1.4883   -0.8519    2.4189 H         1 <0>         0.0601
     45 H7         -1.9714    0.7847    1.9111 H         1 <0>         0.1280
     46 H8         -3.9511   -0.6097    2.4716 H         1 <0>         0.1352
     47 H9         -3.9476   -0.1508    0.7518 H         1 <0>         0.1417
     48 H10        -2.8278   -3.3853   -0.4432 H         1 <0>         0.1337
     49 H11        -3.3058   -1.7365   -0.9134 H         1 <0>         0.1410
     50 H12        -0.8464   -1.9950   -1.0080 H         1 <0>         0.1252
     51 H13        -0.8272   -2.4856    0.7034 H         1 <0>         0.0590
     52 H14        -5.3865   -2.3888    1.9611 H         1 <0>         0.1450
     53 H15        -5.3489   -2.0978    0.2055 H         1 <0>         0.1515
     54 H16        -5.1065   -3.8935   -1.3309 H         1 <0>         0.1522
     55 H17        -5.1506   -6.3199   -1.7397 H         1 <0>         0.1607
     56 H18        -4.7176   -7.0252    2.4556 H         1 <0>         0.1562
     57 H19        -5.3697   -8.8006    0.7538 H         1 <0>         0.4195
     58 H20        -5.0700  -10.5982   -0.7181 H         1 <0>         0.4141
     59 H21        -2.1878   -9.2703   -2.2459 H         1 <0>         0.1387
     60 H22        -1.0398  -10.2299   -4.1996 H         1 <0>         0.1305
     61 H23        -4.2803  -12.9577   -4.7663 H         1 <0>         0.1381
     62 H24        -5.4240  -12.0080   -2.8052 H         1 <0>         0.1366
     63 H25        -0.3919  -13.2222   -7.5438 H         1 <0>         0.1492
     64 H26         0.6976  -14.4252   -2.9804 H         1 <0>         0.2009
     65 H27         2.4512  -15.4270   -7.0699 H         1 <0>         0.4139
     66 H28         0.3926  -14.8302   -8.9090 H         1 <0>         0.0630
     67 H29         1.4691  -13.4173   -8.7942 H         1 <0>         0.0624
     68 H30         2.1162  -14.9885   -9.3243 H         1 <0>         0.0869
     69 H31        -2.9890   -2.7030    1.8403 H         1 <0>         0.4158
@<TRIPOS>BOND
     1    1    2 1
     2    1   39 1
     3    1   40 1
     4    1   41 1
     5    2    3 1
     6    2   42 1
     7    2   43 1
     8    3    8 1
     9    3    4 1
    10    4    5 1
    11    4   44 1
    12    4   45 1
    13    5    6 1
    14    5   46 1
    15    5   47 1
    16    6    7 1
    17    6    9 1
    18    6   69 1
    19    7    8 1
    20    7   48 1
    21    7   49 1
    22    8   50 1
    23    8   51 1
    24    9   10 1
    25    9   52 1
    26    9   53 1
    27   10   15 ar
    28   10   11 ar
    29   11   12 ar
    30   11   54 1
    31   12   13 ar
    32   12   55 1
    33   13   14 ar
    34   13   20 1
    35   14   15 ar
    36   14   56 1
    37   15   16 1
    38   16   17 1
    39   16   18 1
    40   16   19 1
    41   20   21 am
    42   20   57 1
    43   21   22 2
    44   21   23 am
    45   23   24 1
    46   23   58 1
    47   24   29 ar
    48   24   25 ar
    49   25   26 ar
    50   25   59 1
    51   26   27 ar
    52   26   60 1
    53   27   28 ar
    54   27   30 1
    55   28   29 ar
    56   28   61 1
    57   29   62 1
    58   30   31 1
    59   31   36 ar
    60   31   32 ar
    61   32   33 ar
    62   32   63 1
    63   33   34 ar
    64   33   37 1
    65   34   35 ar
    66   35   36 ar
    67   35   64 1
    68   37   38 1
    69   37   65 1
    70   38   66 1
    71   38   67 1
    72   38   68 1
@<TRIPOS>MOLECULE
CHEMBL1087522
   67    72     0     0     0
SMALL
USER_CHARGES

@<TRIPOS>ATOM
      1 C1         -0.0053    1.3819    0.0194 C.ar      1 <0>        -0.0962
      2 C2          1.1799    2.0890    0.0213 C.ar      1 <0>        -0.0823
      3 C3          2.3990    1.4080    0.0091 C.ar      1 <0>        -0.0665
      4 C4          2.4131    0.0126   -0.0050 C.ar      1 <0>        -0.0812
      5 C5          1.2172   -0.6877   -0.0068 C.ar      1 <0>         0.1445
      6 C6          0.0089   -0.0001    0.0054 C.ar      1 <0>        -0.1145
      7 N1          1.2258   -2.0863   -0.0214 N.am      1 <0>        -0.6679
      8 C7          2.1817   -2.7472   -0.7040 C.2       1 <0>         0.5657
      9 O1          3.0841   -2.1312   -1.2368 O.2       1 <0>        -0.5109
     10 C8          2.1327   -4.2211   -0.8047 C.ar      1 <0>        -0.1417
     11 C9          1.0945   -4.9312   -0.1989 C.ar      1 <0>        -0.0533
     12 C10         1.0545   -6.3064   -0.2971 C.ar      1 <0>        -0.1214
     13 C11         2.0404   -6.9823   -0.9943 C.ar      1 <0>        -0.0396
     14 C12         3.0722   -6.2849   -1.5966 C.ar      1 <0>        -0.1881
     15 C13         3.1210   -4.9086   -1.5109 C.ar      1 <0>        -0.0065
     16 C14         4.1418   -7.0294   -2.3534 C.3       1 <0>         0.5100
     17 F1          3.8766   -8.4022   -2.3062 F         1 <0>        -0.1727
     18 F2          4.1536   -6.6022   -3.6855 F         1 <0>        -0.1728
     19 F3          5.3881   -6.7749   -1.7710 F         1 <0>        -0.1731
     20 C15         3.6693    2.1621    0.0106 C.2       1 <0>         0.2561
     21 C16         4.5376    2.0746    1.0796 C.2       1 <0>        -0.2109
     22 C17         5.7307    2.8007    1.0483 C.2       1 <0>         0.1955
     23 N2          6.0212    3.5576    0.0137 N.2       1 <0>        -0.4732
     24 C18         5.1927    3.6542   -1.0296 C.2       1 <0>         0.2907
     25 N3          4.0114    2.9596   -1.0548 N.pl3     1 <0>        -0.3001
     26 N4          3.3662    3.2497   -2.2616 N.2       1 <0>        -0.2936
     27 C19         4.1060    4.0778   -2.9587 C.2       1 <0>         0.1155
     28 C20         5.2629    4.3738   -2.2299 C.2       1 <0>        -0.2357
     29 C21         6.3643    5.2684   -2.6549 C.ar      1 <0>         0.0621
     30 C22         6.8407    6.2527   -1.7890 C.ar      1 <0>        -0.0983
     31 C23         7.8668    7.0830   -2.1907 C.ar      1 <0>        -0.0877
     32 C24         8.4228    6.9410   -3.4496 C.ar      1 <0>        -0.1745
     33 C25         7.9543    5.9669   -4.3132 C.ar      1 <0>        -0.0882
     34 C26         6.9331    5.1262   -3.9205 C.ar      1 <0>        -0.1132
     35 C27         9.5430    7.8516   -3.8823 C.3       1 <0>         0.0516
     36 N5         10.8320    7.2514   -3.5132 N.4       1 <0>        -0.3932
     37 C28        11.0859    6.0390   -4.3329 C.3       1 <0>        -0.0051
     38 C29        12.6244    5.8735   -4.2539 C.3       1 <0>        -0.1457
     39 C30        13.1314    7.3335   -4.2886 C.3       1 <0>        -0.1448
     40 C31        11.9365    8.1854   -3.8221 C.3       1 <0>        -0.0092
     41 H1         -0.9471    1.9103    0.0333 H         1 <0>         0.1394
     42 H2          1.1645    3.1688    0.0319 H         1 <0>         0.1261
     43 H3          3.3528   -0.5197   -0.0148 H         1 <0>         0.1464
     44 H4         -0.9219   -0.5478    0.0040 H         1 <0>         0.1363
     45 H5          0.5438   -2.5806    0.4598 H         1 <0>         0.4151
     46 H6          0.3246   -4.4049    0.3458 H         1 <0>         0.1377
     47 H7          0.2521   -6.8569    0.1714 H         1 <0>         0.1483
     48 H8          2.0044   -8.0592   -1.0682 H         1 <0>         0.1492
     49 H9          3.9243   -4.3649   -1.9856 H         1 <0>         0.1485
     50 H10         4.2978    1.4530    1.9296 H         1 <0>         0.1738
     51 H11         6.4181    2.7401    1.8791 H         1 <0>         0.1881
     52 H12         3.8585    4.4738   -3.9325 H         1 <0>         0.2016
     53 H13         6.4070    6.3649   -0.8063 H         1 <0>         0.1312
     54 H14         8.2365    7.8455   -1.5212 H         1 <0>         0.1290
     55 H15         8.3919    5.8614   -5.2949 H         1 <0>         0.1285
     56 H16         6.5717    4.3628   -4.5936 H         1 <0>         0.1338
     57 H17         9.5024    7.9894   -4.9627 H         1 <0>         0.1326
     58 H18         9.4373    8.8175   -3.3885 H         1 <0>         0.1334
     59 H19        10.5832    5.1723   -3.9037 H         1 <0>         0.1337
     60 H20        10.7685    6.1980   -5.3635 H         1 <0>         0.1317
     61 H21        12.9127    5.3871   -3.3221 H         1 <0>         0.0968
     62 H22        12.9969    5.3153   -5.1129 H         1 <0>         0.1152
     63 H23        13.9735    7.4579   -3.6077 H         1 <0>         0.1039
     64 H24        13.4200    7.6098   -5.3028 H         1 <0>         0.1029
     65 H25        11.6344    8.8680   -4.6164 H         1 <0>         0.1303
     66 H26        12.2078    8.7480   -2.9287 H         1 <0>         0.1309
     67 H27        10.8389    7.0169   -2.5319 H         1 <0>         0.4260
@<TRIPOS>BOND
     1    1    6 ar
     2    1    2 ar
     3    1   41 1
     4    2    3 ar
     5    2   42 1
     6    3    4 ar
     7    3   20 1
     8    4    5 ar
     9    4   43 1
    10    5    6 ar
    11    5    7 1
    12    6   44 1
    13    7    8 am
    14    7   45 1
    15    8    9 2
    16    8   10 1
    17   10   15 ar
    18   10   11 ar
    19   11   12 ar
    20   11   46 1
    21   12   13 ar
    22   12   47 1
    23   13   14 ar
    24   13   48 1
    25   14   15 ar
    26   14   16 1
    27   15   49 1
    28   16   17 1
    29   16   18 1
    30   16   19 1
    31   20   25 1
    32   20   21 2
    33   21   22 1
    34   21   50 1
    35   22   23 2
    36   22   51 1
    37   23   24 1
    38   24   28 2
    39   24   25 1
    40   25   26 1
    41   26   27 2
    42   27   28 1
    43   27   52 1
    44   28   29 1
    45   29   34 ar
    46   29   30 ar
    47   30   31 ar
    48   30   53 1
    49   31   32 ar
    50   31   54 1
    51   32   33 ar
    52   32   35 1
    53   33   34 ar
    54   33   55 1
    55   34   56 1
    56   35   36 1
    57   35   57 1
    58   35   58 1
    59   36   40 1
    60   36   37 1
    61   36   67 1
    62   37   38 1
    63   37   59 1
    64   37   60 1
    65   38   39 1
    66   38   61 1
    67   38   62 1
    68   39   40 1
    69   39   63 1
    70   39   64 1
    71   40   65 1
    72   40   66 1
@<TRIPOS>MOLECULE
CHEMBL186526
   52    54     0     0     0
SMALL
USER_CHARGES

@<TRIPOS>ATOM
      1 C1         -0.3920    1.3196    0.2829 C.3       1 <0>        -0.1144
      2 C2         -0.1867   -0.1617    0.0967 C.ar      1 <0>        -0.1268
      3 C3         -0.3263   -0.7256   -1.1570 C.ar      1 <0>        -0.0825
      4 C4         -0.1394   -2.0830   -1.3319 C.ar      1 <0>        -0.1290
      5 C5          0.1904   -2.8860   -0.2467 C.ar      1 <0>         0.1580
      6 C6          0.3318   -2.3229    1.0134 C.ar      1 <0>        -0.1501
      7 C7          0.1484   -0.9579    1.1847 C.ar      1 <0>         0.1606
      8 N1          0.2955   -0.3855    2.4522 N.am      1 <0>        -0.6629
      9 C8          0.0535   -1.1204    3.5557 C.2       1 <0>         0.5622
     10 O1         -0.2158   -2.3016    3.4526 O.2       1 <0>        -0.5145
     11 C9          0.1154   -0.4914    4.8893 C.ar      1 <0>        -0.1506
     12 C10         0.4192    0.8673    5.0097 C.ar      1 <0>        -0.0674
     13 C11         0.4760    1.4504    6.2558 C.ar      1 <0>        -0.1527
     14 C12         0.2322    0.6893    7.3931 C.ar      1 <0>         0.1394
     15 C13        -0.0698   -0.6625    7.2777 C.ar      1 <0>        -0.1532
     16 C14        -0.1352   -1.2517    6.0348 C.ar      1 <0>        -0.0369
     17 O2          0.2896    1.2676    8.6195 O.3       1 <0>        -0.4971
     18 N2          0.3790   -4.2602   -0.4245 N.am      1 <0>        -0.6664
     19 C15         0.9498   -4.7214   -1.5549 C.2       1 <0>         0.5619
     20 O3          1.2253   -3.9516   -2.4545 O.2       1 <0>        -0.5163
     21 C16         1.2409   -6.1634   -1.7009 C.ar      1 <0>        -0.0899
     22 C17         0.9202   -7.0505   -0.6714 C.ar      1 <0>        -0.1453
     23 C18         1.1928   -8.3959   -0.8100 C.ar      1 <0>        -0.0758
     24 C19         1.7835   -8.8709   -1.9662 C.ar      1 <0>        -0.1713
     25 C20         2.1068   -7.9963   -2.9969 C.ar      1 <0>         0.2078
     26 C21         1.8316   -6.6431   -2.8697 C.ar      1 <0>        -0.1355
     27 N3          2.7044   -8.4812   -4.1629 N.pl3     1 <0>        -0.6372
     28 C22         2.9904   -9.9115   -4.2993 C.3       1 <0>         0.0917
     29 C23         3.0451   -7.5592   -5.2493 C.3       1 <0>         0.0891
     30 H1          0.5556    1.8387    0.1393 H         1 <0>         0.0713
     31 H2         -1.1179    1.6802   -0.4458 H         1 <0>         0.0736
     32 H3         -0.7623    1.5113    1.2900 H         1 <0>         0.0611
     33 H4         -0.5825   -0.1037   -2.0020 H         1 <0>         0.1311
     34 H5         -0.2499   -2.5208   -2.3130 H         1 <0>         0.1399
     35 H6          0.5880   -2.9448    1.8584 H         1 <0>         0.1542
     36 H7          0.5717    0.5405    2.5370 H         1 <0>         0.4114
     37 H8          0.6094    1.4592    4.1265 H         1 <0>         0.1303
     38 H9          0.7107    2.5004    6.3497 H         1 <0>         0.1385
     39 H10        -0.2583   -1.2506    8.1638 H         1 <0>         0.1394
     40 H11        -0.3746   -2.3010    5.9456 H         1 <0>         0.1435
     41 H12        -0.5533    1.6320    8.9223 H         1 <0>         0.3984
     42 H13         0.0990   -4.8815    0.2658 H         1 <0>         0.4128
     43 H14         0.4590   -6.6834    0.2335 H         1 <0>         0.1228
     44 H15         0.9443   -9.0803   -0.0124 H         1 <0>         0.1302
     45 H16         1.9948   -9.9251   -2.0687 H         1 <0>         0.1284
     46 H17         2.0782   -5.9623   -3.6711 H         1 <0>         0.1377
     47 H18         2.1327  -10.4123   -4.7483 H         1 <0>         0.0505
     48 H19         3.8649  -10.0481   -4.9353 H         1 <0>         0.0689
     49 H20         3.1863  -10.3382   -3.3156 H         1 <0>         0.0694
     50 H21         4.0582   -7.1845   -5.1035 H         1 <0>         0.0512
     51 H22         2.9854   -8.0836   -6.2030 H         1 <0>         0.0692
     52 H23         2.3452   -6.7236   -5.2496 H         1 <0>         0.0713
@<TRIPOS>BOND
     1    1    2 1
     2    1   30 1
     3    1   31 1
     4    1   32 1
     5    2    7 ar
     6    2    3 ar
     7    3    4 ar
     8    3   33 1
     9    4    5 ar
    10    4   34 1
    11    5    6 ar
    12    5   18 1
    13    6    7 ar
    14    6   35 1
    15    7    8 1
    16    8    9 am
    17    8   36 1
    18    9   10 2
    19    9   11 1
    20   11   16 ar
    21   11   12 ar
    22   12   13 ar
    23   12   37 1
    24   13   14 ar
    25   13   38 1
    26   14   15 ar
    27   14   17 1
    28   15   16 ar
    29   15   39 1
    30   16   40 1
    31   17   41 1
    32   18   19 am
    33   18   42 1
    34   19   20 2
    35   19   21 1
    36   21   26 ar
    37   21   22 ar
    38   22   23 ar
    39   22   43 1
    40   23   24 ar
    41   23   44 1
    42   24   25 ar
    43   24   45 1
    44   25   26 ar
    45   25   27 1
    46   26   46 1
    47   27   28 1
    48   27   29 1
    49   28   47 1
    50   28   48 1
    51   28   49 1
    52   29   50 1
    53   29   51 1
    54   29   52 1
@<TRIPOS>MOLECULE
CHEMBL200164
   49    53     0     0     0
SMALL
USER_CHARGES

@<TRIPOS>ATOM
      1 C1         -0.6518    0.3327    2.1804 C.ar      1 <0>        -0.1070
      2 C2          0.4853    1.1208    2.1958 C.ar      1 <0>        -0.1162
      3 C3          1.7145    0.5693    1.8993 C.ar      1 <0>        -0.0751
      4 C4          1.8095   -0.7870    1.5833 C.ar      1 <0>        -0.0204
      5 C5          0.6585   -1.5764    1.5697 C.ar      1 <0>        -0.1101
      6 C6         -0.5646   -1.0123    1.8681 C.ar      1 <0>        -0.1155
      7 C7          3.1235   -1.3846    1.2641 C.2       1 <0>         0.2631
      8 N1          3.3392   -2.6922    0.9363 N.pl3     1 <0>        -0.5512
      9 H1          2.6664   -3.3880    0.8712 H         1 <0>         0.4243
     10 C8          4.6885   -2.8383    0.7150 C.2       1 <0>         0.0470
     11 C9          5.2559   -1.5897    0.9202 C.2       1 <0>         0.0607
     12 N2          4.2681   -0.7408    1.2452 N.2       1 <0>        -0.4520
     13 C10         6.6923   -1.2522    0.7975 C.ar      1 <0>         0.0419
     14 C11         7.4739   -1.7970   -0.2275 C.ar      1 <0>        -0.1528
     15 C12         8.8077   -1.4553   -0.3049 C.ar      1 <0>         0.1021
     16 N3          9.3471   -0.6278    0.5703 N.ar      1 <0>        -0.4838
     17 C13         8.6460   -0.0921    1.5516 C.ar      1 <0>         0.0995
     18 C14         7.3045   -0.3752    1.6999 C.ar      1 <0>        -0.1474
     19 C15         5.3924   -4.0767    0.3353 C.ar      1 <0>        -0.0055
     20 C16         6.5219   -4.4860    1.0522 C.ar      1 <0>        -0.0983
     21 C17         7.1721   -5.6328    0.6961 C.ar      1 <0>        -0.0812
     22 C18         6.7084   -6.3944   -0.3808 C.ar      1 <0>        -0.0904
     23 C19         5.5793   -5.9927   -1.0970 C.ar      1 <0>        -0.0447
     24 C20         4.9271   -4.8430   -0.7362 C.ar      1 <0>        -0.1171
     25 C21         5.0500   -6.7991   -2.2516 C.3       1 <0>        -0.0875
     26 C22         6.1369   -7.6858   -2.8527 C.3       1 <0>        -0.1149
     27 C23         6.7492   -8.5592   -1.7497 C.3       1 <0>        -0.0641
     28 C24         7.4248   -7.6314   -0.7613 C.2       1 <0>         0.1719
     29 N4          8.5882   -7.9109   -0.2673 N.2       1 <0>        -0.3272
     30 O1          9.2743   -6.9508    0.5153 O.3       1 <0>        -0.3997
     31 H2         -1.6111    0.7684    2.4177 H         1 <0>         0.1277
     32 H3          0.4103    2.1702    2.4400 H         1 <0>         0.1311
     33 H4          2.6013    1.1856    1.9112 H         1 <0>         0.1381
     34 H5          0.7252   -2.6264    1.3257 H         1 <0>         0.1173
     35 H6         -1.4560   -1.6220    1.8578 H         1 <0>         0.1289
     36 H7          7.0391   -2.4750   -0.9469 H         1 <0>         0.1316
     37 H8          9.4192   -1.8708   -1.0922 H         1 <0>         0.1561
     38 H9          9.1284    0.5804    2.2455 H         1 <0>         0.1582
     39 H10         6.7357    0.0704    2.5026 H         1 <0>         0.1381
     40 H11         6.8785   -3.8968    1.8842 H         1 <0>         0.1272
     41 H12         8.0451   -5.9515    1.2464 H         1 <0>         0.1609
     42 H13         4.0526   -4.5257   -1.2848 H         1 <0>         0.1250
     43 H14         4.2299   -7.4265   -1.9026 H         1 <0>         0.0851
     44 H15         4.6774   -6.1210   -3.0195 H         1 <0>         0.0828
     45 H16         5.7016   -8.3238   -3.6219 H         1 <0>         0.0861
     46 H17         6.9130   -7.0609   -3.2945 H         1 <0>         0.0720
     47 H18         5.9653   -9.1271   -1.2486 H         1 <0>         0.0948
     48 H19         7.4834   -9.2398   -2.1806 H         1 <0>         0.0930
     49 H20        10.1345   -7.2502    0.8401 H         1 <0>         0.3976
@<TRIPOS>BOND
     1    1    6 ar
     2    1    2 ar
     3    1   31 1
     4    2    3 ar
     5    2   32 1
     6    3    4 ar
     7    3   33 1
     8    4    5 ar
     9    4    7 1
    10    5    6 ar
    11    5   34 1
    12    6   35 1
    13    7   12 2
    14    7    8 1
    15    8    9 1
    16    8   10 1
    17   10   11 2
    18   10   19 1
    19   11   12 1
    20   11   13 1
    21   13   18 ar
    22   13   14 ar
    23   14   15 ar
    24   14   36 1
    25   15   16 ar
    26   15   37 1
    27   16   17 ar
    28   17   18 ar
    29   17   38 1
    30   18   39 1
    31   19   24 ar
    32   19   20 ar
    33   20   21 ar
    34   20   40 1
    35   21   22 ar
    36   21   41 1
    37   22   28 1
    38   22   23 ar
    39   23   24 ar
    40   23   25 1
    41   24   42 1
    42   25   26 1
    43   25   43 1
    44   25   44 1
    45   26   27 1
    46   26   45 1
    47   26   46 1
    48   27   28 1
    49   27   47 1
    50   27   48 1
    51   28   29 2
    52   29   30 1
    53   30   49 1
@<TRIPOS>MOLECULE
CHEMBL200164__1
   50    54     0     0     0
SMALL
USER_CHARGES

@<TRIPOS>ATOM
      1 C1         -0.7279    0.3525    2.1334 C.ar      1 <0>        -0.0628
      2 C2          0.3971    1.1579    2.1330 C.ar      1 <0>        -0.1062
      3 C3          1.6363    0.6171    1.8587 C.ar      1 <0>        -0.0716
      4 C4          1.7536   -0.7458    1.5817 C.ar      1 <0>        -0.0962
      5 C5          0.6148   -1.5528    1.5842 C.ar      1 <0>        -0.0743
      6 C6         -0.6185   -0.9993    1.8596 C.ar      1 <0>        -0.1055
      7 C7          3.0783   -1.3321    1.2864 C.cat     1 <0>         0.3919
      8 N1          3.3073   -2.5963    1.0128 N.pl3     1 <0>        -0.4686
      9 H1          4.3745    0.3044    1.4095 H         1 <0>         0.4635
     10 C8          4.6195   -2.7787    0.7960 C.2       1 <0>         0.1101
     11 C9          5.2459   -1.5507    0.9441 C.2       1 <0>         0.1190
     12 N2          4.2564   -0.6449    1.2489 N.pl3     1 <0>        -0.5042
     13 C10         6.6866   -1.2702    0.7981 C.ar      1 <0>        -0.0188
     14 C11         7.4098   -1.7643   -0.2963 C.ar      1 <0>        -0.1262
     15 C12         8.7546   -1.4775   -0.3924 C.ar      1 <0>         0.1176
     16 N3          9.3603   -0.7500    0.5274 N.ar      1 <0>        -0.4577
     17 C13         8.7177   -0.2651    1.5734 C.ar      1 <0>         0.1158
     18 C14         7.3700   -0.4970    1.7467 C.ar      1 <0>        -0.1487
     19 C15         5.2791   -4.0605    0.4601 C.ar      1 <0>        -0.0572
     20 C16         6.3903   -4.4850    1.1918 C.ar      1 <0>        -0.0845
     21 C17         7.0027   -5.6758    0.8758 C.ar      1 <0>        -0.0827
     22 C18         6.5114   -6.4571   -0.1737 C.ar      1 <0>        -0.0591
     23 C19         5.3988   -6.0388   -0.9049 C.ar      1 <0>        -0.0414
     24 C20         4.7860   -4.8445   -0.5826 C.ar      1 <0>        -0.1016
     25 C21         4.8394   -6.8647   -2.0311 C.3       1 <0>        -0.0909
     26 C22         5.8920   -7.8124   -2.5993 C.3       1 <0>        -0.1171
     27 C23         6.4710   -8.6690   -1.4656 C.3       1 <0>        -0.0668
     28 C24         7.1809   -7.7332   -0.5093 C.2       1 <0>         0.1607
     29 N4          8.3325   -8.0388   -0.0039 N.2       1 <0>        -0.3084
     30 O1          9.0565   -7.0767    0.7412 O.3       1 <0>        -0.4015
     31 H2         -1.6951    0.7800    2.3529 H         1 <0>         0.1459
     32 H3          0.3049    2.2124    2.3475 H         1 <0>         0.1476
     33 H4          2.5135    1.2470    1.8580 H         1 <0>         0.1320
     34 H5          0.6988   -2.6081    1.3702 H         1 <0>         0.1320
     35 H6         -1.5005   -1.6226    1.8618 H         1 <0>         0.1478
     36 H7          6.9209   -2.3609   -1.0523 H         1 <0>         0.1446
     37 H8          9.3206   -1.8536   -1.2318 H         1 <0>         0.1708
     38 H9          9.2544    0.3251    2.3014 H         1 <0>         0.1710
     39 H10         6.8498   -0.0933    2.6027 H         1 <0>         0.1415
     40 H11         6.7679   -3.8802    2.0030 H         1 <0>         0.1319
     41 H12         7.8632   -6.0066    1.4384 H         1 <0>         0.1689
     42 H13         3.9241   -4.5137   -1.1431 H         1 <0>         0.1316
     43 H14         3.9963   -7.4482   -1.6612 H         1 <0>         0.0911
     44 H15         4.4926   -6.2006   -2.8227 H         1 <0>         0.0869
     45 H16         5.4329   -8.4600   -3.3462 H         1 <0>         0.0919
     46 H17         6.6911   -7.2330   -3.0617 H         1 <0>         0.0736
     47 H18         5.6662   -9.1892   -0.9461 H         1 <0>         0.0979
     48 H19         7.1791   -9.3914   -1.8714 H         1 <0>         0.0983
     49 H20         9.9045   -7.3968    1.0781 H         1 <0>         0.4054
     50 H21         2.6319   -3.2915    0.9739 H         1 <0>         0.4627
@<TRIPOS>BOND
     1    1    6 ar
     2    1    2 ar
     3    1   31 1
     4    2    3 ar
     5    2   32 1
     6    3    4 ar
     7    3   33 1
     8    4    5 ar
     9    4    7 1
    10    5    6 ar
    11    5   34 1
    12    6   35 1
    13    7    8 2
    14    7   12 1
    15    8   10 1
    16    8   50 1
    17    9   12 1
    18   10   19 1
    19   10   11 2
    20   11   13 1
    21   11   12 1
    22   13   18 ar
    23   13   14 ar
    24   14   15 ar
    25   14   36 1
    26   15   16 ar
    27   15   37 1
    28   16   17 ar
    29   17   18 ar
    30   17   38 1
    31   18   39 1
    32   19   24 ar
    33   19   20 ar
    34   20   21 ar
    35   20   40 1
    36   21   22 ar
    37   21   41 1
    38   22   28 1
    39   22   23 ar
    40   23   24 ar
    41   23   25 1
    42   24   42 1
    43   25   26 1
    44   25   43 1
    45   25   44 1
    46   26   27 1
    47   26   45 1
    48   26   46 1
    49   27   28 1
    50   27   47 1
    51   27   48 1
    52   28   29 2
    53   29   30 1
    54   30   49 1
@<TRIPOS>MOLECULE
CHEMBL200164__2
   49    53     0     0     0
SMALL
USER_CHARGES

@<TRIPOS>ATOM
      1 C1         -0.0653    0.9515   -0.2970 C.ar      1 <0>        -0.1062
      2 C2          1.0916    1.7083   -0.2414 C.ar      1 <0>        -0.1164
      3 C3          2.3248    1.0898   -0.2428 C.ar      1 <0>        -0.0741
      4 C4          2.4036   -0.3025   -0.3000 C.ar      1 <0>        -0.0219
      5 C5          1.2327   -1.0600   -0.3555 C.ar      1 <0>        -0.1096
      6 C6          0.0059   -0.4290   -0.3540 C.ar      1 <0>        -0.1156
      7 C7          3.7219   -0.9720   -0.3023 C.2       1 <0>         0.2688
      8 N1          4.8848   -0.3632   -0.2532 N.2       1 <0>        -0.4551
      9 H1          3.2367   -3.0044   -0.3879 H         1 <0>         0.4241
     10 C8          5.8703   -1.2745   -0.2720 C.2       1 <0>         0.0787
     11 C9          5.2834   -2.5289   -0.3368 C.2       1 <0>         0.0280
     12 N2          3.9235   -2.3205   -0.3498 N.pl3     1 <0>        -0.5506
     13 C10         5.9787   -3.8290   -0.3777 C.ar      1 <0>         0.0258
     14 C11         7.0886   -4.0267   -1.2108 C.ar      1 <0>        -0.1416
     15 C12         7.7078   -5.2583   -1.2171 C.ar      1 <0>         0.1070
     16 N3          7.2689   -6.2420   -0.4542 N.ar      1 <0>        -0.4793
     17 C13         6.2279   -6.0991    0.3445 C.ar      1 <0>         0.1064
     18 C14         5.5520   -4.9000    0.4195 C.ar      1 <0>        -0.1670
     19 C15         7.3225   -0.9910   -0.2316 C.ar      1 <0>         0.0124
     20 C16         8.1841   -1.8621    0.4387 C.ar      1 <0>        -0.1146
     21 C17         9.5332   -1.5947    0.4765 C.ar      1 <0>        -0.0837
     22 C18        10.0375   -0.4551   -0.1561 C.ar      1 <0>        -0.0980
     23 C19         9.1808    0.4159   -0.8305 C.ar      1 <0>        -0.0483
     24 C20         7.8282    0.1423   -0.8679 C.ar      1 <0>        -0.1002
     25 C21         9.6962    1.6431   -1.5317 C.3       1 <0>        -0.0864
     26 C22        11.0399    2.0853   -0.9593 C.3       1 <0>        -0.1147
     27 C23        12.0273    0.9121   -1.0132 C.3       1 <0>        -0.0637
     28 C24        11.4892   -0.1736   -0.1044 C.2       1 <0>         0.1758
     29 N4         12.2714   -0.8316    0.6894 N.2       1 <0>        -0.3326
     30 O1         11.7237   -1.7116    1.6541 O.3       1 <0>        -0.4013
     31 H2         -1.0283    1.4404   -0.2915 H         1 <0>         0.1279
     32 H3          1.0292    2.7856   -0.1972 H         1 <0>         0.1313
     33 H4          3.2271    1.6817   -0.2000 H         1 <0>         0.1385
     34 H5          1.2870   -2.1377   -0.4002 H         1 <0>         0.1173
     35 H6         -0.9009   -1.0140   -0.3969 H         1 <0>         0.1290
     36 H7          7.4528   -3.2267   -1.8382 H         1 <0>         0.1395
     37 H8          8.5637   -5.4207   -1.8554 H         1 <0>         0.1614
     38 H9          5.9037   -6.9319    0.9509 H         1 <0>         0.1604
     39 H10         4.7038   -4.7890    1.0787 H         1 <0>         0.1334
     40 H11         7.7925   -2.7427    0.9262 H         1 <0>         0.1216
     41 H12        10.2023   -2.2652    0.9952 H         1 <0>         0.1572
     42 H13         7.1583    0.8110   -1.3882 H         1 <0>         0.1314
     43 H14         9.8149    1.4244   -2.5929 H         1 <0>         0.0845
     44 H15         8.9744    2.4514   -1.4135 H         1 <0>         0.0831
     45 H16        11.4299    2.9161   -1.5473 H         1 <0>         0.0850
     46 H17        10.9078    2.4022    0.0753 H         1 <0>         0.0707
     47 H18        12.1023    0.5375   -2.0340 H         1 <0>         0.0949
     48 H19        13.0074    1.2362   -0.6634 H         1 <0>         0.0913
     49 H20        12.3854   -2.1576    2.2002 H         1 <0>         0.3954
@<TRIPOS>BOND
     1    1    6 ar
     2    1    2 ar
     3    1   31 1
     4    2    3 ar
     5    2   32 1
     6    3    4 ar
     7    3   33 1
     8    4    5 ar
     9    4    7 1
    10    5    6 ar
    11    5   34 1
    12    6   35 1
    13    7    8 2
    14    7   12 1
    15    8   10 1
    16    9   12 1
    17   10   19 1
    18   10   11 2
    19   11   13 1
    20   11   12 1
    21   13   18 ar
    22   13   14 ar
    23   14   15 ar
    24   14   36 1
    25   15   16 ar
    26   15   37 1
    27   16   17 ar
    28   17   18 ar
    29   17   38 1
    30   18   39 1
    31   19   24 ar
    32   19   20 ar
    33   20   21 ar
    34   20   40 1
    35   21   22 ar
    36   21   41 1
    37   22   28 1
    38   22   23 ar
    39   23   24 ar
    40   23   25 1
    41   24   42 1
    42   25   26 1
    43   25   43 1
    44   25   44 1
    45   26   27 1
    46   26   45 1
    47   26   46 1
    48   27   28 1
    49   27   47 1
    50   27   48 1
    51   28   29 2
    52   29   30 1
    53   30   49 1
@<TRIPOS>MOLECULE
CHEMBL477989
   62    66     0     0     0
SMALL
USER_CHARGES

@<TRIPOS>ATOM
      1 C1          1.0944   -0.9772   -2.3605 C.3       1 <0>        -0.0545
      2 N1          0.4201   -0.4075   -1.1864 N.4       1 <0>        -0.3890
      3 C2          0.4794    1.0589   -1.2511 C.3       1 <0>        -0.0477
      4 C3         -0.9836   -0.8405   -1.1698 C.3       1 <0>        -0.0018
      5 C4         -1.0480   -2.3536   -0.9525 C.3       1 <0>         0.0229
      6 O1         -0.5245   -2.6722    0.3384 O.3       1 <0>        -0.3270
      7 C5         -0.5094   -3.9837    0.6912 C.ar      1 <0>         0.1228
      8 C6         -0.9845   -4.9443   -0.1925 C.ar      1 <0>        -0.1981
      9 C7         -0.9705   -6.2760    0.1615 C.ar      1 <0>        -0.0338
     10 C8         -0.4777   -6.6593    1.4106 C.ar      1 <0>        -0.0328
     11 C9         -0.0010   -5.6906    2.2962 C.ar      1 <0>        -0.0693
     12 C10        -0.0136   -4.3614    1.9325 C.ar      1 <0>        -0.1349
     13 C11        -0.4613   -8.0861    1.7944 C.2       1 <0>         0.2554
     14 N2         -0.0111   -8.5798    2.9843 N.pl3     1 <0>        -0.5506
     15 H1          0.3511   -8.0640    3.7216 H         1 <0>         0.4245
     16 C12        -0.1675   -9.9469    2.9425 C.2       1 <0>         0.0429
     17 C13        -0.7179  -10.2396    1.7045 C.2       1 <0>         0.0801
     18 N3         -0.8831   -9.0807    1.0465 N.2       1 <0>        -0.4514
     19 C14        -1.0662  -11.5869    1.2004 C.ar      1 <0>         0.0115
     20 C15        -1.6872  -12.5105    2.0440 C.ar      1 <0>        -0.1047
     21 C16        -2.0099  -13.7608    1.5748 C.ar      1 <0>        -0.0669
     22 C17        -1.7182  -14.1160    0.2487 C.ar      1 <0>        -0.0570
     23 C18        -1.0982  -13.1918   -0.5911 C.ar      1 <0>        -0.0615
     24 C19        -0.7801  -11.9348   -0.1198 C.ar      1 <0>        -0.0821
     25 C20        -0.8925  -13.8045   -1.9559 C.3       1 <0>        -0.0820
     26 C21        -1.4572  -15.2294   -1.8799 C.3       1 <0>        -0.1142
     27 C22        -1.9682  -15.3820   -0.4679 C.2       1 <0>         0.1689
     28 N4         -2.5273  -16.4385    0.0282 N.2       1 <0>        -0.3210
     29 O2         -2.7055  -17.5896   -0.7771 O.3       1 <0>        -0.4032
     30 C23         0.1816  -10.9092    4.0041 C.ar      1 <0>         0.0179
     31 C24         0.9155  -12.0678    3.7139 C.ar      1 <0>        -0.1404
     32 C25         1.2194  -12.9395    4.7374 C.ar      1 <0>         0.1098
     33 N5          0.8292  -12.6955    5.9745 N.ar      1 <0>        -0.4758
     34 C26         0.1369  -11.6174    6.2918 C.ar      1 <0>         0.1078
     35 C27        -0.2060  -10.6883    5.3331 C.ar      1 <0>        -0.1649
     36 H2          2.1359   -0.6559   -2.3728 H         1 <0>         0.1275
     37 H3          1.0504   -2.0652   -2.3125 H         1 <0>         0.1216
     38 H4          0.5973   -0.6331   -3.2675 H         1 <0>         0.1251
     39 H5          1.5170    1.3842   -1.1761 H         1 <0>         0.1260
     40 H6          0.0599    1.3980   -2.1983 H         1 <0>         0.1235
     41 H7         -0.0947    1.4825   -0.4271 H         1 <0>         0.1248
     42 H8         -1.5104   -0.3345   -0.3608 H         1 <0>         0.1429
     43 H9         -1.4524   -0.5898   -2.1214 H         1 <0>         0.1504
     44 H10        -2.0840   -2.6861   -1.0167 H         1 <0>         0.1114
     45 H11        -0.4571   -2.8561   -1.7183 H         1 <0>         0.0891
     46 H12        -1.3658   -4.6470   -1.1582 H         1 <0>         0.1352
     47 H13        -1.3404   -7.0222   -0.5260 H         1 <0>         0.1478
     48 H14         0.3806   -5.9831    3.2633 H         1 <0>         0.1315
     49 H15         0.3588   -3.6120    2.6153 H         1 <0>         0.1396
     50 H16        -1.9134  -12.2421    3.0654 H         1 <0>         0.1264
     51 H17        -2.4898  -14.4734    2.2292 H         1 <0>         0.1324
     52 H18        -0.3043  -11.2192   -0.7739 H         1 <0>         0.1317
     53 H19        -1.4300  -13.2287   -2.7094 H         1 <0>         0.0906
     54 H20         0.1703  -13.8355   -2.1958 H         1 <0>         0.0908
     55 H21        -2.2735  -15.3506   -2.5920 H         1 <0>         0.0957
     56 H22        -0.6712  -15.9582   -2.0778 H         1 <0>         0.0961
     57 H23        -3.1315  -18.3274   -0.3197 H         1 <0>         0.4080
     58 H24         1.2375  -12.2743    2.7039 H         1 <0>         0.1400
     59 H25         1.7844  -13.8349    4.5241 H         1 <0>         0.1632
     60 H26        -0.1615  -11.4590    7.3176 H         1 <0>         0.1614
     61 H27        -0.7687   -9.8062    5.6008 H         1 <0>         0.1336
     62 H28         0.8802   -0.7260   -0.3468 H         1 <0>         0.4336
@<TRIPOS>BOND
     1    1    2 1
     2    1   36 1
     3    1   37 1
     4    1   38 1
     5    2    3 1
     6    2    4 1
     7    2   62 1
     8    3   39 1
     9    3   40 1
    10    3   41 1
    11    4    5 1
    12    4   42 1
    13    4   43 1
    14    5    6 1
    15    5   44 1
    16    5   45 1
    17    6    7 1
    18    7   12 ar
    19    7    8 ar
    20    8    9 ar
    21    8   46 1
    22    9   10 ar
    23    9   47 1
    24   10   11 ar
    25   10   13 1
    26   11   12 ar
    27   11   48 1
    28   12   49 1
    29   13   18 2
    30   13   14 1
    31   14   15 1
    32   14   16 1
    33   16   17 2
    34   16   30 1
    35   17   18 1
    36   17   19 1
    37   19   24 ar
    38   19   20 ar
    39   20   21 ar
    40   20   50 1
    41   21   22 ar
    42   21   51 1
    43   22   27 1
    44   22   23 ar
    45   23   24 ar
    46   23   25 1
    47   24   52 1
    48   25   26 1
    49   25   53 1
    50   25   54 1
    51   26   27 1
    52   26   55 1
    53   26   56 1
    54   27   28 2
    55   28   29 1
    56   29   57 1
    57   30   35 ar
    58   30   31 ar
    59   31   32 ar
    60   31   58 1
    61   32   33 ar
    62   32   59 1
    63   33   34 ar
    64   34   35 ar
    65   34   60 1
    66   35   61 1
@<TRIPOS>MOLECULE
CHEMBL477989__1
   62    66     0     0     0
SMALL
USER_CHARGES

@<TRIPOS>ATOM
      1 C1          0.8656   -0.3580   -0.9926 C.3       1 <0>        -0.0546
      2 N1         -0.0118   -0.0050    0.1314 N.4       1 <0>        -0.3890
      3 C2         -0.0444    1.4554    0.2873 C.3       1 <0>        -0.0476
      4 C3         -1.3695   -0.4996   -0.1331 C.3       1 <0>        -0.0018
      5 C4         -1.3621   -2.0295   -0.1432 C.3       1 <0>         0.0229
      6 O1         -1.0224   -2.5127    1.1580 O.3       1 <0>        -0.3270
      7 C5         -0.9712   -3.8602    1.3215 C.ar      1 <0>         0.1224
      8 C6         -1.2378   -4.6989    0.2468 C.ar      1 <0>        -0.1978
      9 C7         -1.1874   -6.0665    0.4086 C.ar      1 <0>        -0.0345
     10 C8         -0.8674   -6.6089    1.6550 C.ar      1 <0>        -0.0320
     11 C9         -0.5997   -5.7623    2.7328 C.ar      1 <0>        -0.0694
     12 C10        -0.6470   -4.3957    2.5614 C.ar      1 <0>        -0.1347
     13 C11        -0.8127   -8.0747    1.8330 C.2       1 <0>         0.2529
     14 N2         -1.0447   -8.9648    0.8950 N.2       1 <0>        -0.4496
     15 H1         -0.2907   -8.3035    3.8462 H         1 <0>         0.4250
     16 C12        -0.9069  -10.2000    1.4033 C.2       1 <0>         0.0668
     17 C13        -0.5681  -10.0703    2.7414 C.2       1 <0>         0.0586
     18 N3         -0.5073   -8.7196    2.9971 N.pl3     1 <0>        -0.5515
     19 C14        -0.3173  -11.1626    3.6988 C.ar      1 <0>        -0.0101
     20 C15        -1.1767  -12.2656    3.7454 C.ar      1 <0>        -0.0910
     21 C16        -0.9425  -13.2747    4.6320 C.ar      1 <0>        -0.0647
     22 C17         0.1586  -13.2130    5.5012 C.ar      1 <0>        -0.0485
     23 C18         1.0141  -12.1125    5.4531 C.ar      1 <0>        -0.0585
     24 C19         0.7827  -11.1020    4.5586 C.ar      1 <0>        -0.0983
     25 C20         2.1122  -12.2787    6.4764 C.3       1 <0>        -0.0831
     26 C21         1.8495  -13.6175    7.1789 C.3       1 <0>        -0.1142
     27 C22         0.6049  -14.1723    6.5299 C.2       1 <0>         0.1646
     28 N4          0.0295  -15.2938    6.8242 N.2       1 <0>        -0.3159
     29 O2          0.5685  -16.1212    7.8390 O.3       1 <0>        -0.4005
     30 C23        -1.0857  -11.4721    0.6672 C.ar      1 <0>         0.0350
     31 C24        -0.2979  -12.5904    0.9622 C.ar      1 <0>        -0.1557
     32 C25        -0.4983  -13.7555    0.2522 C.ar      1 <0>         0.1037
     33 N5         -1.4165  -13.8236   -0.6932 N.ar      1 <0>        -0.4809
     34 C26        -2.1803  -12.7929   -1.0028 C.ar      1 <0>         0.1012
     35 C27        -2.0511  -11.5911   -0.3389 C.ar      1 <0>        -0.1469
     36 H2          1.8730    0.0089   -0.7963 H         1 <0>         0.1274
     37 H3          0.8897   -1.4416   -1.1082 H         1 <0>         0.1216
     38 H4          0.4851    0.0966   -1.9073 H         1 <0>         0.1251
     39 H5         -0.4425    1.9089   -0.6204 H         1 <0>         0.1234
     40 H6         -0.6804    1.7164    1.1331 H         1 <0>         0.1248
     41 H7          0.9658    1.8244    0.4649 H         1 <0>         0.1260
     42 H8         -2.0438   -0.1446    0.6463 H         1 <0>         0.1430
     43 H9         -1.7080   -0.1315   -1.1017 H         1 <0>         0.1505
     44 H10        -2.3506   -2.3958   -0.4202 H         1 <0>         0.1114
     45 H11        -0.6274   -2.3845   -0.8658 H         1 <0>         0.0890
     46 H12        -1.4851   -4.2786   -0.7168 H         1 <0>         0.1351
     47 H13        -1.3954   -6.7180   -0.4273 H         1 <0>         0.1473
     48 H14        -0.3518   -6.1779    3.6983 H         1 <0>         0.1317
     49 H15        -0.4358   -3.7402    3.3934 H         1 <0>         0.1396
     50 H16        -2.0254  -12.3176    3.0796 H         1 <0>         0.1337
     51 H17        -1.6073  -14.1252    4.6661 H         1 <0>         0.1370
     52 H18         1.4495  -10.2533    4.5207 H         1 <0>         0.1269
     53 H19         3.0837  -12.2995    5.9826 H         1 <0>         0.0924
     54 H20         2.0767  -11.4635    7.1991 H         1 <0>         0.0910
     55 H21         2.6893  -14.2953    7.0260 H         1 <0>         0.0976
     56 H22         1.6810  -13.4583    8.2440 H         1 <0>         0.0967
     57 H23         0.0706  -16.9368    7.9873 H         1 <0>         0.4095
     58 H24         0.4558  -12.5416    1.7341 H         1 <0>         0.1347
     59 H25         0.1047  -14.6239    0.4726 H         1 <0>         0.1584
     60 H26        -2.9193  -12.8931   -1.7840 H         1 <0>         0.1590
     61 H27        -2.6828  -10.7531   -0.5943 H         1 <0>         0.1380
     62 H28         0.3404   -0.4258    0.9781 H         1 <0>         0.4336
@<TRIPOS>BOND
     1    1    2 1
     2    1   36 1
     3    1   37 1
     4    1   38 1
     5    2    3 1
     6    2    4 1
     7    2   62 1
     8    3   39 1
     9    3   40 1
    10    3   41 1
    11    4    5 1
    12    4   42 1
    13    4   43 1
    14    5    6 1
    15    5   44 1
    16    5   45 1
    17    6    7 1
    18    7   12 ar
    19    7    8 ar
    20    8    9 ar
    21    8   46 1
    22    9   10 ar
    23    9   47 1
    24   10   11 ar
    25   10   13 1
    26   11   12 ar
    27   11   48 1
    28   12   49 1
    29   13   14 2
    30   13   18 1
    31   14   16 1
    32   15   18 1
    33   16   30 1
    34   16   17 2
    35   17   19 1
    36   17   18 1
    37   19   24 ar
    38   19   20 ar
    39   20   21 ar
    40   20   50 1
    41   21   22 ar
    42   21   51 1
    43   22   27 1
    44   22   23 ar
    45   23   24 ar
    46   23   25 1
    47   24   52 1
    48   25   26 1
    49   25   53 1
    50   25   54 1
    51   26   27 1
    52   26   55 1
    53   26   56 1
    54   27   28 2
    55   28   29 1
    56   29   57 1
    57   30   35 ar
    58   30   31 ar
    59   31   32 ar
    60   31   58 1
    61   32   33 ar
    62   32   59 1
    63   33   34 ar
    64   34   35 ar
    65   34   60 1
    66   35   61 1
@<TRIPOS>MOLECULE
CHEMBL477989__2
   63    67     0     0     0
SMALL
USER_CHARGES

@<TRIPOS>ATOM
      1 C1          0.1188   -0.0112   -0.0891 C.3       1 <0>        -0.0553
      2 N1         -0.5730    0.1624    1.1951 N.4       1 <0>        -0.3895
      3 C2         -0.6605    1.5936    1.5146 C.3       1 <0>        -0.0494
      4 C3         -1.9259   -0.4023    1.1027 C.3       1 <0>        -0.0034
      5 C4         -1.8344   -1.9187    0.9209 C.3       1 <0>         0.0195
      6 O1         -1.2475   -2.5034    2.0853 O.3       1 <0>        -0.3169
      7 C5         -1.0932   -3.8529    2.0865 C.ar      1 <0>         0.1718
      8 C6         -1.4944   -4.5970    0.9844 C.ar      1 <0>        -0.1959
      9 C7         -1.3391   -5.9663    0.9816 C.ar      1 <0>        -0.0269
     10 C8         -0.7775   -6.6056    2.0888 C.ar      1 <0>        -0.1143
     11 C9         -0.3754   -5.8540    3.1948 C.ar      1 <0>        -0.0316
     12 C10        -0.5293   -4.4845    3.1876 C.ar      1 <0>        -0.1303
     13 C11        -0.6095   -8.0737    2.0902 C.cat     1 <0>         0.3818
     14 N2         -0.9580   -8.9104    1.0701 N.pl3     1 <0>        -0.5028
     15 H1         -1.3553   -8.6522    0.2237 H         1 <0>         0.4631
     16 C12        -0.6396  -10.1897    1.4668 C.2       1 <0>         0.1272
     17 C13        -0.0987  -10.0812    2.7384 C.2       1 <0>         0.1173
     18 N3         -0.0958   -8.7804    3.0716 N.pl3     1 <0>        -0.4663
     19 C14         0.3926  -11.1980    3.5763 C.ar      1 <0>        -0.0610
     20 C15         1.2387  -12.1643    3.0281 C.ar      1 <0>        -0.0771
     21 C16         1.6939  -13.2004    3.8070 C.ar      1 <0>        -0.0669
     22 C17         1.3123  -13.2934    5.1544 C.ar      1 <0>        -0.0143
     23 C18         0.4674  -12.3272    5.6989 C.ar      1 <0>        -0.0570
     24 C19         0.0160  -11.2844    4.9167 C.ar      1 <0>        -0.0814
     25 C20         0.2053  -12.6433    7.1521 C.3       1 <0>        -0.0855
     26 C21         0.9863  -13.9271    7.4633 C.3       1 <0>        -0.1156
     27 C22         1.6707  -14.3017    6.1711 C.2       1 <0>         0.1490
     28 N4          2.4372  -15.3280    5.9867 N.2       1 <0>        -0.3026
     29 O2          2.6974  -16.2187    7.0563 O.3       1 <0>        -0.3895
     30 C23        -0.8356  -11.4295    0.6927 C.ar      1 <0>        -0.0253
     31 C24        -1.4140  -12.5628    1.2811 C.ar      1 <0>        -0.1261
     32 C25        -1.5780  -13.7002    0.5200 C.ar      1 <0>         0.1195
     33 N5         -1.1988  -13.7310   -0.7440 N.ar      1 <0>        -0.4547
     34 C26        -0.6503  -12.6872   -1.3373 C.ar      1 <0>         0.1172
     35 C27        -0.4540  -11.5063   -0.6540 C.ar      1 <0>        -0.1485
     36 H2          1.1228    0.4078   -0.0206 H         1 <0>         0.1303
     37 H3          0.1838   -1.0731   -0.3262 H         1 <0>         0.1182
     38 H4         -0.4367    0.5029   -0.8735 H         1 <0>         0.1278
     39 H5          0.3419    1.9938    1.6668 H         1 <0>         0.1289
     40 H6         -1.1411    2.1211    0.6907 H         1 <0>         0.1261
     41 H7         -1.2471    1.7278    2.4234 H         1 <0>         0.1268
     42 H8         -2.4762   -0.1785    2.0166 H         1 <0>         0.1464
     43 H9         -2.4448    0.0352    0.2498 H         1 <0>         0.1558
     44 H10        -2.8338   -2.3279    0.7732 H         1 <0>         0.1170
     45 H11        -1.2173   -2.1437    0.0510 H         1 <0>         0.0947
     46 H12        -1.9290   -4.1018    0.1287 H         1 <0>         0.1503
     47 H13        -1.6516   -6.5442    0.1245 H         1 <0>         0.1407
     48 H14         0.0590   -6.3448    4.0531 H         1 <0>         0.1455
     49 H15        -0.2148   -3.9020    4.0410 H         1 <0>         0.1576
     50 H16         1.5350  -12.0973    1.9916 H         1 <0>         0.1369
     51 H17         2.3479  -13.9467    3.3806 H         1 <0>         0.1455
     52 H18        -0.6345  -10.5346    5.3423 H         1 <0>         0.1336
     53 H19         0.5599  -11.8276    7.7823 H         1 <0>         0.0965
     54 H20        -0.8605  -12.8053    7.3135 H         1 <0>         0.0979
     55 H21         1.7259  -13.7399    8.2418 H         1 <0>         0.1013
     56 H22         0.3038  -14.7188    7.7724 H         1 <0>         0.1021
     57 H23         3.2801  -16.9542    6.8227 H         1 <0>         0.4149
     58 H24        -1.7259  -12.5451    2.3149 H         1 <0>         0.1468
     59 H25        -2.0226  -14.5786    0.9640 H         1 <0>         0.1730
     60 H26        -0.3550  -12.7582   -2.3737 H         1 <0>         0.1717
     61 H27        -0.0088  -10.6549   -1.1472 H         1 <0>         0.1408
     62 H28        -0.0587   -0.3135    1.9212 H         1 <0>         0.4319
     63 H29         0.2332   -8.4182    3.9091 H         1 <0>         0.4629
@<TRIPOS>BOND
     1    1    2 1
     2    1   36 1
     3    1   37 1
     4    1   38 1
     5    2    3 1
     6    2    4 1
     7    2   62 1
     8    3   39 1
     9    3   40 1
    10    3   41 1
    11    4    5 1
    12    4   42 1
    13    4   43 1
    14    5    6 1
    15    5   44 1
    16    5   45 1
    17    6    7 1
    18    7   12 ar
    19    7    8 ar
    20    8    9 ar
    21    8   46 1
    22    9   10 ar
    23    9   47 1
    24   10   11 ar
    25   10   13 1
    26   11   12 ar
    27   11   48 1
    28   12   49 1
    29   13   18 2
    30   13   14 1
    31   14   15 1
    32   14   16 1
    33   16   17 2
    34   16   30 1
    35   17   18 1
    36   17   19 1
    37   18   63 1
    38   19   24 ar
    39   19   20 ar
    40   20   21 ar
    41   20   50 1
    42   21   22 ar
    43   21   51 1
    44   22   27 1
    45   22   23 ar
    46   23   24 ar
    47   23   25 1
    48   24   52 1
    49   25   26 1
    50   25   53 1
    51   25   54 1
    52   26   27 1
    53   26   55 1
    54   26   56 1
    55   27   28 2
    56   28   29 1
    57   29   57 1
    58   30   35 ar
    59   30   31 ar
    60   31   32 ar
    61   31   58 1
    62   32   33 ar
    63   32   59 1
    64   33   34 ar
    65   34   35 ar
    66   34   60 1
    67   35   61 1
@<TRIPOS>MOLECULE
CHEMBL200172
   41    43     0     0     0
SMALL
USER_CHARGES

@<TRIPOS>ATOM
      1 C1         -0.0458    1.7622   -0.2983 C.3       1 <0>        -0.1431
      2 C2         -0.0109    0.2431   -0.1197 C.3       1 <0>         0.0143
      3 C3          0.7307   -0.1016    1.1734 C.3       1 <0>        -0.1481
      4 C4         -1.4414   -0.2947   -0.0461 C.3       1 <0>        -0.1294
      5 C5          0.7019   -0.3840   -1.2901 C.2       1 <0>         0.2447
      6 N1          2.0376   -0.3717   -1.4857 N.pl3     1 <0>        -0.5504
      7 H1          2.6994    0.0365   -0.9059 H         1 <0>         0.4225
      8 C6          2.2870   -1.0456   -2.6597 C.2       1 <0>         0.0198
      9 C7          1.0546   -1.4503   -3.1407 C.2       1 <0>         0.0704
     10 N2          0.1236   -1.0268   -2.2663 N.2       1 <0>        -0.4644
     11 C8          0.8062   -2.2143   -4.3855 C.ar      1 <0>         0.0173
     12 C9          1.6337   -3.2842   -4.7265 C.ar      1 <0>        -0.0980
     13 C10         1.4003   -3.9942   -5.8865 C.ar      1 <0>        -0.0932
     14 C11         0.3470   -3.6478   -6.7140 C.ar      1 <0>        -0.0603
     15 C12        -0.4815   -2.5833   -6.3818 C.ar      1 <0>         0.1184
     16 C13        -0.2586   -1.8696   -5.2164 C.ar      1 <0>        -0.1052
     17 O1         -1.5149   -2.2461   -7.1980 O.3       1 <0>        -0.4855
     18 Cl1         0.0602   -4.5455   -8.1719 Cl        1 <0>        -0.0547
     19 C14         3.6037   -1.2877   -3.2804 C.ar      1 <0>         0.0272
     20 C15         3.8130   -1.0439   -4.6443 C.ar      1 <0>        -0.1447
     21 C16         5.0593   -1.2841   -5.1822 C.ar      1 <0>         0.1081
     22 N3          6.0460   -1.7369   -4.4315 N.ar      1 <0>        -0.4800
     23 C17         5.8923   -1.9799   -3.1433 C.ar      1 <0>         0.1062
     24 C18         4.6816   -1.7625   -2.5211 C.ar      1 <0>        -0.1668
     25 H2          0.9733    2.1454   -0.3507 H         1 <0>         0.0536
     26 H3         -0.5741    2.0078   -1.2195 H         1 <0>         0.0646
     27 H4         -0.5613    2.2158    0.5482 H         1 <0>         0.0721
     28 H5          0.2152    0.3520    2.0199 H         1 <0>         0.0749
     29 H6          0.7555   -1.1838    1.3006 H         1 <0>         0.0631
     30 H7          1.7498    0.2816    1.1209 H         1 <0>         0.0523
     31 H8         -1.9697   -0.0492   -0.9673 H         1 <0>         0.0692
     32 H9         -1.4166   -1.3770    0.0811 H         1 <0>         0.0612
     33 H10        -1.9570    0.1589    0.8004 H         1 <0>         0.0632
     34 H11         2.4571   -3.5566   -4.0829 H         1 <0>         0.1305
     35 H12         2.0418   -4.8224   -6.1493 H         1 <0>         0.1403
     36 H13        -0.9048   -1.0449   -4.9545 H         1 <0>         0.1423
     37 H14        -2.3437   -2.6992   -6.9908 H         1 <0>         0.3947
     38 H15         3.0102   -0.6737   -5.2647 H         1 <0>         0.1383
     39 H16         5.2306   -1.0996   -6.2324 H         1 <0>         0.1617
     40 H17         6.7278   -2.3502   -2.5678 H         1 <0>         0.1599
     41 H18         4.5645   -1.9589   -1.4656 H         1 <0>         0.1332
@<TRIPOS>BOND
     1    1    2 1
     2    1   25 1
     3    1   26 1
     4    1   27 1
     5    2    3 1
     6    2    4 1
     7    2    5 1
     8    3   28 1
     9    3   29 1
    10    3   30 1
    11    4   31 1
    12    4   32 1
    13    4   33 1
    14    5   10 2
    15    5    6 1
    16    6    7 1
    17    6    8 1
    18    8    9 2
    19    8   19 1
    20    9   10 1
    21    9   11 1
    22   11   16 ar
    23   11   12 ar
    24   12   13 ar
    25   12   34 1
    26   13   14 ar
    27   13   35 1
    28   14   15 ar
    29   14   18 1
    30   15   16 ar
    31   15   17 1
    32   16   36 1
    33   17   37 1
    34   19   24 ar
    35   19   20 ar
    36   20   21 ar
    37   20   38 1
    38   21   22 ar
    39   21   39 1
    40   22   23 ar
    41   23   24 ar
    42   23   40 1
    43   24   41 1
@<TRIPOS>MOLECULE
CHEMBL200172__1
   42    44     0     0     0
SMALL
USER_CHARGES

@<TRIPOS>ATOM
      1 C1         -0.0263    1.3104    0.2204 C.3       1 <0>        -0.1558
      2 C2          0.1074   -0.2109    0.1269 C.3       1 <0>        -0.0127
      3 C3          0.9732   -0.7187    1.2816 C.3       1 <0>        -0.1562
      4 C4         -1.2799   -0.8508    0.2100 C.3       1 <0>        -0.1669
      5 C5          0.7527   -0.5788   -1.1843 C.cat     1 <0>         0.3475
      6 N1          0.1900   -1.3486   -2.1400 N.pl3     1 <0>        -0.4981
      7 H1         -0.6891   -1.7570   -2.1050 H         1 <0>         0.4650
      8 C6          1.0940   -1.4465   -3.1735 C.2       1 <0>         0.1185
      9 C7          2.1998   -0.7096   -2.7889 C.2       1 <0>         0.1021
     10 N2          1.9379   -0.1978   -1.5723 N.pl3     1 <0>        -0.4649
     11 C8          3.4410   -0.5149   -3.5742 C.ar      1 <0>        -0.0511
     12 C9          3.3679   -0.1611   -4.9215 C.ar      1 <0>        -0.0716
     13 C10         4.5253    0.0196   -5.6508 C.ar      1 <0>        -0.0866
     14 C11         5.7599   -0.1496   -5.0495 C.ar      1 <0>        -0.0373
     15 C12         5.8413   -0.5023   -3.7083 C.ar      1 <0>         0.1298
     16 C13         4.6850   -0.6792   -2.9674 C.ar      1 <0>        -0.1095
     17 O1          7.0562   -0.6680   -3.1217 O.3       1 <0>        -0.4787
     18 Cl1         7.2115    0.0790   -5.9738 Cl        1 <0>        -0.0235
     19 C14         0.9187   -2.1882   -4.4371 C.ar      1 <0>        -0.0219
     20 C15         1.9255   -3.0341   -4.9216 C.ar      1 <0>        -0.1289
     21 C16         1.7191   -3.7075   -6.1065 C.ar      1 <0>         0.1181
     22 N3          0.5937   -3.5638   -6.7810 N.ar      1 <0>        -0.4568
     23 C17        -0.3800   -2.7778   -6.3610 C.ar      1 <0>         0.1168
     24 C18        -0.2615   -2.0710   -5.1835 C.ar      1 <0>        -0.1479
     25 H2          0.9620    1.7663    0.1613 H         1 <0>         0.0680
     26 H3         -0.6432    1.6722   -0.6022 H         1 <0>         0.0746
     27 H4         -0.4930    1.5765    1.1688 H         1 <0>         0.0991
     28 H5          0.5065   -0.4526    2.2300 H         1 <0>         0.0992
     29 H6          1.0685   -1.8025    1.2150 H         1 <0>         0.0748
     30 H7          1.9615   -0.2627    1.2225 H         1 <0>         0.0679
     31 H8         -1.8967   -0.4891   -0.6127 H         1 <0>         0.0727
     32 H9         -1.1846   -1.9346    0.1433 H         1 <0>         0.0729
     33 H10        -1.7466   -0.5847    1.1584 H         1 <0>         0.1025
     34 H11         2.4057   -0.0290   -5.3938 H         1 <0>         0.1419
     35 H12         4.4674    0.2936   -6.6939 H         1 <0>         0.1545
     36 H13         4.7468   -0.9487   -1.9234 H         1 <0>         0.1437
     37 H14         7.4160    0.1385   -2.7278 H         1 <0>         0.4034
     38 H15         2.8490   -3.1562   -4.3751 H         1 <0>         0.1453
     39 H16         2.4891   -4.3614   -6.4884 H         1 <0>         0.1724
     40 H17        -1.2837   -2.6904   -6.9459 H         1 <0>         0.1717
     41 H18        -1.0643   -1.4335   -4.8435 H         1 <0>         0.1420
     42 H19         2.5394    0.3661   -1.0613 H         1 <0>         0.4636
@<TRIPOS>BOND
     1    1    2 1
     2    1   25 1
     3    1   26 1
     4    1   27 1
     5    2    3 1
     6    2    4 1
     7    2    5 1
     8    3   28 1
     9    3   29 1
    10    3   30 1
    11    4   31 1
    12    4   32 1
    13    4   33 1
    14    5   10 2
    15    5    6 1
    16    6    7 1
    17    6    8 1
    18    8    9 2
    19    8   19 1
    20    9   10 1
    21    9   11 1
    22   10   42 1
    23   11   16 ar
    24   11   12 ar
    25   12   13 ar
    26   12   34 1
    27   13   14 ar
    28   13   35 1
    29   14   15 ar
    30   14   18 1
    31   15   16 ar
    32   15   17 1
    33   16   36 1
    34   17   37 1
    35   19   24 ar
    36   19   20 ar
    37   20   21 ar
    38   20   38 1
    39   21   22 ar
    40   21   39 1
    41   22   23 ar
    42   23   24 ar
    43   23   40 1
    44   24   41 1
@<TRIPOS>MOLECULE
CHEMBL200172__2
   41    43     0     0     0
SMALL
USER_CHARGES

@<TRIPOS>ATOM
      1 C1         -0.0187    1.5258    0.0104 C.3       1 <0>        -0.1432
      2 C2          0.0021   -0.0041    0.0020 C.3       1 <0>         0.0149
      3 C3          0.7421   -0.5109    1.2415 C.3       1 <0>        -0.1480
      4 C4         -1.4333   -0.5336    0.0129 C.3       1 <0>        -0.1297
      5 C5          0.7074   -0.4901   -1.2379 C.2       1 <0>         0.2435
      6 N1          0.1234   -1.0024   -2.2843 N.2       1 <0>        -0.4607
      7 H1          2.7155   -0.1209   -0.8211 H         1 <0>         0.4230
      8 C6          1.0513   -1.3280   -3.2043 C.2       1 <0>         0.0598
      9 C7          2.2880   -0.9912   -2.6839 C.2       1 <0>         0.0325
     10 N2          2.0488   -0.4568   -1.4404 N.pl3     1 <0>        -0.5541
     11 C8          3.6016   -1.1660   -3.3359 C.ar      1 <0>         0.0003
     12 C9          3.9053   -2.3616   -3.9909 C.ar      1 <0>        -0.0862
     13 C10         5.1330   -2.5214   -4.5993 C.ar      1 <0>        -0.0888
     14 C11         6.0660   -1.5000   -4.5630 C.ar      1 <0>        -0.0575
     15 C12         5.7727   -0.3074   -3.9134 C.ar      1 <0>         0.1231
     16 C13         4.5416   -0.1347   -3.3047 C.ar      1 <0>        -0.1254
     17 O1          6.6930    0.6925   -3.8804 O.3       1 <0>        -0.4848
     18 Cl1         7.6085   -1.7097   -5.3314 Cl        1 <0>        -0.0484
     19 C14         0.7950   -1.9355   -4.5296 C.ar      1 <0>         0.0416
     20 C15         1.5853   -1.6062   -5.6367 C.ar      1 <0>        -0.1595
     21 C16         1.3115   -2.1957   -6.8527 C.ar      1 <0>         0.1013
     22 N3          0.3207   -3.0582   -6.9799 N.ar      1 <0>        -0.4845
     23 C17        -0.4483   -3.3963   -5.9620 C.ar      1 <0>         0.1004
     24 C18        -0.2408   -2.8595   -4.7090 C.ar      1 <0>        -0.1466
     25 H2          1.0039    1.9031    0.0027 H         1 <0>         0.0536
     26 H3         -0.5459    1.8868   -0.8726 H         1 <0>         0.0643
     27 H4         -0.5289    1.8773    0.9072 H         1 <0>         0.0722
     28 H5          0.2319   -0.1594    2.1383 H         1 <0>         0.0748
     29 H6          0.7568   -1.6008    1.2356 H         1 <0>         0.0632
     30 H7          1.7647   -0.1336    1.2338 H         1 <0>         0.0526
     31 H8         -1.9605   -0.1726   -0.8702 H         1 <0>         0.0692
     32 H9         -1.4185   -1.6235    0.0069 H         1 <0>         0.0614
     33 H10        -1.9435   -0.1821    0.9097 H         1 <0>         0.0634
     34 H11         3.1795   -3.1608   -4.0207 H         1 <0>         0.1379
     35 H12         5.3669   -3.4465   -5.1052 H         1 <0>         0.1451
     36 H13         4.3106    0.7937   -2.8035 H         1 <0>         0.1368
     37 H14         6.6298    1.3099   -4.6220 H         1 <0>         0.3964
     38 H15         2.3973   -0.9006   -5.5400 H         1 <0>         0.1320
     39 H16         1.9158   -1.9480   -7.7128 H         1 <0>         0.1567
     40 H17        -1.2483   -4.1062   -6.1115 H         1 <0>         0.1582
     41 H18        -0.8711   -3.1441   -3.8794 H         1 <0>         0.1391
@<TRIPOS>BOND
     1    1    2 1
     2    1   25 1
     3    1   26 1
     4    1   27 1
     5    2    3 1
     6    2    4 1
     7    2    5 1
     8    3   28 1
     9    3   29 1
    10    3   30 1
    11    4   31 1
    12    4   32 1
    13    4   33 1
    14    5    6 2
    15    5   10 1
    16    6    8 1
    17    7   10 1
    18    8   19 1
    19    8    9 2
    20    9   11 1
    21    9   10 1
    22   11   16 ar
    23   11   12 ar
    24   12   13 ar
    25   12   34 1
    26   13   14 ar
    27   13   35 1
    28   14   15 ar
    29   14   18 1
    30   15   16 ar
    31   15   17 1
    32   16   36 1
    33   17   37 1
    34   19   24 ar
    35   19   20 ar
    36   20   21 ar
    37   20   38 1
    38   21   22 ar
    39   21   39 1
    40   22   23 ar
    41   23   24 ar
    42   23   40 1
    43   24   41 1
@<TRIPOS>MOLECULE
CHEMBL372543
   46    50     0     0     0
SMALL
USER_CHARGES

@<TRIPOS>ATOM
      1 C1          0.0139    1.3597    0.5768 C.ar      1 <0>        -0.1067
      2 C2          1.1854    2.0788    0.4190 C.ar      1 <0>        -0.1163
      3 C3          2.3866    1.4196    0.2580 C.ar      1 <0>        -0.0748
      4 C4          2.4183    0.0242    0.2545 C.ar      1 <0>        -0.0211
      5 C5          1.2329   -0.6951    0.4142 C.ar      1 <0>        -0.1098
      6 C6          0.0384   -0.0237    0.5743 C.ar      1 <0>        -0.1155
      7 C7          3.7019   -0.6888    0.0820 C.2       1 <0>         0.2649
      8 N1          3.8563   -2.0450    0.0565 N.pl3     1 <0>        -0.5512
      9 H1          3.1525   -2.7063    0.1467 H         1 <0>         0.4247
     10 C8          5.1962   -2.2980   -0.1218 C.2       1 <0>         0.0463
     11 C9          5.8205   -1.0622   -0.1998 C.2       1 <0>         0.0627
     12 N2          4.8741   -0.1181   -0.0768 N.2       1 <0>        -0.4519
     13 C10         7.2698   -0.8263   -0.3900 C.ar      1 <0>         0.0413
     14 C11         8.0084   -1.5873   -1.3030 C.ar      1 <0>        -0.1532
     15 C12         9.3560   -1.3339   -1.4489 C.ar      1 <0>         0.1015
     16 N3          9.9484   -0.3898   -0.7423 N.ar      1 <0>        -0.4835
     17 C13         9.2890    0.3503    0.1290 C.ar      1 <0>         0.0999
     18 C14         7.9376    0.1677    0.3340 C.ar      1 <0>        -0.1470
     19 C15         5.8410   -3.6206   -0.2117 C.ar      1 <0>        -0.0012
     20 C16         6.9912   -3.8924    0.5368 C.ar      1 <0>        -0.0959
     21 C17         7.5858   -5.1165    0.4519 C.ar      1 <0>        -0.0615
     22 C18         7.0491   -6.1085   -0.3845 C.ar      1 <0>        -0.1052
     23 C19         5.9023   -5.8355   -1.1298 C.ar      1 <0>        -0.0624
     24 C20         5.3017   -4.6081   -1.0403 C.ar      1 <0>        -0.1030
     25 C21         5.5245   -7.0507   -1.9429 C.3       1 <0>        -0.0827
     26 C22         6.5704   -8.1272   -1.6230 C.3       1 <0>        -0.0653
     27 C23         7.5136   -7.4868   -0.6339 C.2       1 <0>         0.1682
     28 N4          8.5497   -8.0484   -0.0984 N.2       1 <0>        -0.3186
     29 O1          9.3515   -7.3266    0.8187 O.3       1 <0>        -0.4034
     30 H2         -0.9232    1.8806    0.7070 H         1 <0>         0.1278
     31 H3          1.1594    3.1585    0.4215 H         1 <0>         0.1312
     32 H4          3.3003    1.9821    0.1345 H         1 <0>         0.1382
     33 H5          1.2506   -1.7750    0.4121 H         1 <0>         0.1175
     34 H6         -0.8795   -0.5790    0.6979 H         1 <0>         0.1290
     35 H7          7.5302   -2.3618   -1.8844 H         1 <0>         0.1322
     36 H8          9.9346   -1.9161   -2.1508 H         1 <0>         0.1566
     37 H9          9.8141    1.1122    0.6860 H         1 <0>         0.1584
     38 H10         7.4034    0.7801    1.0453 H         1 <0>         0.1381
     39 H11         7.4083   -3.1328    1.1814 H         1 <0>         0.1299
     40 H12         8.4739   -5.3240    1.0303 H         1 <0>         0.1387
     41 H13         4.4111   -4.4013   -1.6150 H         1 <0>         0.1257
     42 H14         4.5313   -7.3976   -1.6580 H         1 <0>         0.0932
     43 H15         5.5471   -6.8113   -3.0061 H         1 <0>         0.0945
     44 H16         6.0910   -8.9989   -1.1777 H         1 <0>         0.1019
     45 H17         7.1080   -8.4119   -2.5275 H         1 <0>         0.1026
     46 H18        10.1019   -7.8286    1.1651 H         1 <0>         0.4051
@<TRIPOS>BOND
     1    1    6 ar
     2    1    2 ar
     3    1   30 1
     4    2    3 ar
     5    2   31 1
     6    3    4 ar
     7    3   32 1
     8    4    5 ar
     9    4    7 1
    10    5    6 ar
    11    5   33 1
    12    6   34 1
    13    7   12 2
    14    7    8 1
    15    8    9 1
    16    8   10 1
    17   10   11 2
    18   10   19 1
    19   11   12 1
    20   11   13 1
    21   13   18 ar
    22   13   14 ar
    23   14   15 ar
    24   14   35 1
    25   15   16 ar
    26   15   36 1
    27   16   17 ar
    28   17   18 ar
    29   17   37 1
    30   18   38 1
    31   19   24 ar
    32   19   20 ar
    33   20   21 ar
    34   20   39 1
    35   21   22 ar
    36   21   40 1
    37   22   27 1
    38   22   23 ar
    39   23   24 ar
    40   23   25 1
    41   24   41 1
    42   25   26 1
    43   25   42 1
    44   25   43 1
    45   26   27 1
    46   26   44 1
    47   26   45 1
    48   27   28 2
    49   28   29 1
    50   29   46 1
@<TRIPOS>MOLECULE
CHEMBL372543__1
   47    51     0     0     0
SMALL
USER_CHARGES

@<TRIPOS>ATOM
      1 C1          0.0397    1.4066    0.5714 C.ar      1 <0>        -0.0625
      2 C2          1.2196    2.1138    0.4233 C.ar      1 <0>        -0.1062
      3 C3          2.4142    1.4425    0.2636 C.ar      1 <0>        -0.0714
      4 C4          2.4309    0.0470    0.2521 C.ar      1 <0>        -0.0967
      5 C5          1.2371   -0.6603    0.4025 C.ar      1 <0>        -0.0741
      6 C6          0.0492    0.0231    0.5609 C.ar      1 <0>        -0.1055
      7 C7          3.7075   -0.6789    0.0810 C.cat     1 <0>         0.3933
      8 N1          3.8426   -1.9853    0.0547 N.pl3     1 <0>        -0.4689
      9 H1          5.1189    0.8531   -0.1034 H         1 <0>         0.4638
     10 C8          5.1363   -2.2999   -0.1165 C.2       1 <0>         0.1109
     11 C9          5.8507   -1.1147   -0.2020 C.2       1 <0>         0.1198
     12 N2          4.9315   -0.0983   -0.0807 N.pl3     1 <0>        -0.5040
     13 C10         7.3065   -0.9719   -0.3913 C.ar      1 <0>        -0.0198
     14 C11         7.9810   -1.7084   -1.3749 C.ar      1 <0>        -0.1271
     15 C12         9.3422   -1.5433   -1.5166 C.ar      1 <0>         0.1171
     16 N3         10.0082   -0.7073   -0.7423 N.ar      1 <0>        -0.4577
     17 C13         9.4129    0.0054    0.1957 C.ar      1 <0>         0.1160
     18 C14         8.0537   -0.0916    0.4034 C.ar      1 <0>        -0.1481
     19 C15         5.6992   -3.6665   -0.1984 C.ar      1 <0>        -0.0541
     20 C16         6.8301   -4.0032    0.5484 C.ar      1 <0>        -0.0817
     21 C17         7.3511   -5.2721    0.4718 C.ar      1 <0>        -0.0641
     22 C18         6.7513   -6.2346   -0.3552 C.ar      1 <0>        -0.0715
     23 C19         5.6223   -5.8954   -1.0995 C.ar      1 <0>        -0.0607
     24 C20         5.0975   -4.6222   -1.0172 C.ar      1 <0>        -0.0861
     25 C21         5.1665   -7.0901   -1.9029 C.3       1 <0>        -0.0847
     26 C22         6.1434   -8.2281   -1.5778 C.3       1 <0>        -0.0682
     27 C23         7.1278   -7.6414   -0.5955 C.2       1 <0>         0.1554
     28 N4          8.1279   -8.2630   -0.0585 N.2       1 <0>        -0.2986
     29 O1          8.9762   -7.5864    0.8512 O.3       1 <0>        -0.4020
     30 H2         -0.8924    1.9368    0.7002 H         1 <0>         0.1459
     31 H3          1.2053    3.1937    0.4323 H         1 <0>         0.1476
     32 H4          3.3345    1.9957    0.1474 H         1 <0>         0.1321
     33 H5          1.2432   -1.7403    0.3942 H         1 <0>         0.1321
     34 H6         -0.8752   -0.5230    0.6773 H         1 <0>         0.1479
     35 H7          7.4427   -2.3948   -2.0116 H         1 <0>         0.1454
     36 H8          9.8711   -2.1062   -2.2715 H         1 <0>         0.1712
     37 H9          9.9983    0.6770    0.8062 H         1 <0>         0.1712
     38 H10         7.5726    0.4980    1.1697 H         1 <0>         0.1420
     39 H11         7.2954   -3.2660    1.1859 H         1 <0>         0.1343
     40 H12         8.2260   -5.5301    1.0500 H         1 <0>         0.1476
     41 H13         4.2202   -4.3634   -1.5915 H         1 <0>         0.1322
     42 H14         4.1542   -7.3717   -1.6131 H         1 <0>         0.0989
     43 H15         5.2011   -6.8601   -2.9678 H         1 <0>         0.0998
     44 H16         5.6112   -9.0647   -1.1251 H         1 <0>         0.1068
     45 H17         6.6594   -8.5525   -2.4815 H         1 <0>         0.1073
     46 H18         9.6945   -8.1321    1.1994 H         1 <0>         0.4125
     47 H19         3.1187   -2.6245    0.1455 H         1 <0>         0.4629
@<TRIPOS>BOND
     1    1    6 ar
     2    1    2 ar
     3    1   30 1
     4    2    3 ar
     5    2   31 1
     6    3    4 ar
     7    3   32 1
     8    4    5 ar
     9    4    7 1
    10    5    6 ar
    11    5   33 1
    12    6   34 1
    13    7    8 2
    14    7   12 1
    15    8   10 1
    16    8   47 1
    17    9   12 1
    18   10   19 1
    19   10   11 2
    20   11   13 1
    21   11   12 1
    22   13   18 ar
    23   13   14 ar
    24   14   15 ar
    25   14   35 1
    26   15   16 ar
    27   15   36 1
    28   16   17 ar
    29   17   18 ar
    30   17   37 1
    31   18   38 1
    32   19   24 ar
    33   19   20 ar
    34   20   21 ar
    35   20   39 1
    36   21   22 ar
    37   21   40 1
    38   22   27 1
    39   22   23 ar
    40   23   24 ar
    41   23   25 1
    42   24   41 1
    43   25   26 1
    44   25   42 1
    45   25   43 1
    46   26   27 1
    47   26   44 1
    48   26   45 1
    49   27   28 2
    50   28   29 1
    51   29   46 1
@<TRIPOS>MOLECULE
CHEMBL372543__2
   46    50     0     0     0
SMALL
USER_CHARGES

@<TRIPOS>ATOM
      1 C1         -0.0167    1.3794    0.0096 C.ar      1 <0>        -0.1060
      2 C2          1.1684    2.0934    0.0021 C.ar      1 <0>        -0.1165
      3 C3          2.3774    1.4292   -0.0134 C.ar      1 <0>        -0.0739
      4 C4          2.4034    0.0337   -0.0211 C.ar      1 <0>        -0.0223
      5 C5          1.2043   -0.6806   -0.0130 C.ar      1 <0>        -0.1094
      6 C6          0.0021   -0.0041    0.0020 C.ar      1 <0>        -0.1156
      7 C7          3.6955   -0.6847   -0.0382 C.2       1 <0>         0.2695
      8 N1          4.8809   -0.1189   -0.0469 N.2       1 <0>        -0.4546
      9 H1          3.1337   -2.6991   -0.0334 H         1 <0>         0.4244
     10 C8          5.8313   -1.0668   -0.0614 C.2       1 <0>         0.0783
     11 C9          5.1970   -2.2997   -0.0617 C.2       1 <0>         0.0299
     12 N2          3.8460   -2.0408   -0.0415 N.pl3     1 <0>        -0.5504
     13 C10         5.8427   -3.6258   -0.0752 C.ar      1 <0>         0.0247
     14 C11         6.9177   -3.8952   -0.9334 C.ar      1 <0>        -0.1419
     15 C12         7.4909   -5.1487   -0.9125 C.ar      1 <0>         0.1075
     16 N3          7.0405   -6.0869   -0.1007 N.ar      1 <0>        -0.4791
     17 C13         6.0311   -5.8761    0.7232 C.ar      1 <0>         0.1065
     18 C14         5.4023   -4.6505    0.7738 C.ar      1 <0>        -0.1667
     19 C15         7.2935   -0.8372   -0.0754 C.ar      1 <0>         0.0161
     20 C16         8.1458   -1.7136    0.5995 C.ar      1 <0>        -0.1119
     21 C17         9.5028   -1.4993    0.5852 C.ar      1 <0>        -0.0646
     22 C18        10.0386   -0.4015   -0.1059 C.ar      1 <0>        -0.1127
     23 C19         9.1851    0.4717   -0.7787 C.ar      1 <0>        -0.0653
     24 C20         7.8232    0.2519   -0.7676 C.ar      1 <0>        -0.0854
     25 C21         9.9935    1.5629   -1.4391 C.3       1 <0>        -0.0820
     26 C22        11.4632    1.2760   -1.1035 C.3       1 <0>        -0.0652
     27 C23        11.4434    0.0250   -0.2592 C.2       1 <0>         0.1719
     28 N4         12.4774   -0.5693    0.2434 N.2       1 <0>        -0.3239
     29 O1         12.3121   -1.7409    1.0212 O.3       1 <0>        -0.4050
     30 H2         -0.9605    1.9041    0.0260 H         1 <0>         0.1280
     31 H3          1.1469    3.1732    0.0081 H         1 <0>         0.1314
     32 H4          3.3017    1.9877   -0.0199 H         1 <0>         0.1387
     33 H5          1.2176   -1.7605   -0.0192 H         1 <0>         0.1174
     34 H6         -0.9265   -0.5556    0.0082 H         1 <0>         0.1291
     35 H7          7.2910   -3.1326   -1.6008 H         1 <0>         0.1398
     36 H8          8.3197   -5.3662   -1.5699 H         1 <0>         0.1617
     37 H9          5.6959   -6.6737    1.3697 H         1 <0>         0.1605
     38 H10         4.5799   -4.4838    1.4537 H         1 <0>         0.1336
     39 H11         7.7383   -2.5595    1.1330 H         1 <0>         0.1243
     40 H12        10.1599   -2.1783    1.1082 H         1 <0>         0.1350
     41 H13         7.1647    0.9274   -1.2934 H         1 <0>         0.1324
     42 H14         9.8444    1.5379   -2.5186 H         1 <0>         0.0931
     43 H15         9.7024    2.5359   -1.0433 H         1 <0>         0.0936
     44 H16        12.0329    1.1059   -2.0171 H         1 <0>         0.1012
     45 H17        11.8907    2.1052   -0.5399 H         1 <0>         0.1011
     46 H18        13.1407   -2.1127    1.3532 H         1 <0>         0.4031
@<TRIPOS>BOND
     1    1    6 ar
     2    1    2 ar
     3    1   30 1
     4    2    3 ar
     5    2   31 1
     6    3    4 ar
     7    3   32 1
     8    4    5 ar
     9    4    7 1
    10    5    6 ar
    11    5   33 1
    12    6   34 1
    13    7    8 2
    14    7   12 1
    15    8   10 1
    16    9   12 1
    17   10   19 1
    18   10   11 2
    19   11   13 1
    20   11   12 1
    21   13   18 ar
    22   13   14 ar
    23   14   15 ar
    24   14   35 1
    25   15   16 ar
    26   15   36 1
    27   16   17 ar
    28   17   18 ar
    29   17   37 1
    30   18   38 1
    31   19   24 ar
    32   19   20 ar
    33   20   21 ar
    34   20   39 1
    35   21   22 ar
    36   21   40 1
    37   22   27 1
    38   22   23 ar
    39   23   24 ar
    40   23   25 1
    41   24   41 1
    42   25   26 1
    43   25   42 1
    44   25   43 1
    45   26   27 1
    46   26   44 1
    47   26   45 1
    48   27   28 2
    49   28   29 1
    50   29   46 1
@<TRIPOS>MOLECULE
CHEMBL585144
   64    70     0     0     0
SMALL
USER_CHARGES

@<TRIPOS>ATOM
      1 C1          7.3906    2.7800   -1.8679 C.3       1 <0>        -0.1517
      2 C2          5.9000    2.4450   -1.9504 C.3       1 <0>         0.0797
      3 O1          5.7205    1.2595   -2.7279 O.3       1 <0>        -0.3644
      4 C3          4.4574    0.8257   -2.8983 C.2       1 <0>         0.6692
      5 O2          3.5327    1.4370   -2.4005 O.2       1 <0>        -0.5684
      6 N1          4.2186   -0.2865   -3.6211 N.am      1 <0>        -0.6021
      7 C4          5.1996   -1.1687   -4.2981 C.3       1 <0>         0.1365
      8 C5          4.5425   -1.4953   -5.6589 C.3       1 <0>        -0.1944
      9 C6          3.0281   -1.3294   -5.4139 C.3       1 <0>        -0.2216
     10 C7          2.9130   -0.9218   -3.9226 C.3       1 <0>         0.1687
     11 C8          2.8271   -2.2079   -3.0853 C.3       1 <0>        -0.1459
     12 C9          3.9242   -3.1725   -3.5448 C.3       1 <0>        -0.0513
     13 C10         5.2766   -2.4723   -3.4876 C.3       1 <0>        -0.1265
     14 C11         3.6416   -3.6175   -4.9566 C.2       1 <0>         0.2187
     15 C12         4.6560   -3.9918   -5.7746 C.2       1 <0>        -0.2164
     16 C13         4.3692   -4.4025   -7.0839 C.2       1 <0>         0.1799
     17 N2          3.1283   -4.4236   -7.5131 N.2       1 <0>        -0.4510
     18 C14         2.1204   -4.0568   -6.7154 C.2       1 <0>         0.2787
     19 N3          2.3598   -3.6543   -5.4268 N.pl3     1 <0>        -0.2842
     20 N4          1.1323   -3.3405   -4.8330 N.2       1 <0>        -0.2913
     21 C15         0.1639   -3.5415   -5.7063 C.2       1 <0>         0.1779
     22 C16         0.7359   -3.9861   -6.9155 C.2       1 <0>        -0.1890
     23 C17         0.0100   -4.3290   -8.1556 C.ar      1 <0>         0.0929
     24 C18        -0.4521   -5.6227   -8.3615 C.ar      1 <0>        -0.1276
     25 C19        -1.1334   -5.9470   -9.5239 C.ar      1 <0>        -0.0501
     26 C20        -1.3644   -4.9954  -10.4944 C.ar      1 <0>        -0.0600
     27 C21        -0.9125   -3.6890  -10.3155 C.ar      1 <0>         0.1388
     28 C22        -0.2249   -3.3427   -9.1390 C.ar      1 <0>        -0.1507
     29 C23         0.0968   -1.9706   -9.2376 C.2       1 <0>         0.0798
     30 N5         -0.3582   -1.5156  -10.3697 N.2       1 <0>        -0.2369
     31 N6         -0.9841   -2.5497  -11.0767 N.pl3     1 <0>        -0.4961
     32 H1         -1.4049   -2.4716  -11.9472 H         1 <0>         0.4454
     33 Cl1        -2.2197   -5.4253  -11.9426 Cl        1 <0>        -0.0649
     34 C24        -1.2819   -3.3244   -5.4609 C.ar      1 <0>         0.0200
     35 C25        -2.1220   -2.8631   -6.4791 C.ar      1 <0>        -0.1413
     36 C26        -3.4615   -2.6752   -6.2077 C.ar      1 <0>         0.1038
     37 N7         -3.9510   -2.9246   -5.0082 N.ar      1 <0>        -0.4733
     38 C27        -3.1931   -3.3608   -4.0203 C.ar      1 <0>         0.1013
     39 C28        -1.8440   -3.5809   -4.2066 C.ar      1 <0>        -0.1386
     40 H2          7.9233    1.9532   -1.3981 H         1 <0>         0.0666
     41 H3          7.7829    2.9412   -2.8720 H         1 <0>         0.0663
     42 H4          7.5275    3.6842   -1.2748 H         1 <0>         0.0830
     43 H5          5.5077    2.2838   -0.9463 H         1 <0>         0.0680
     44 H6          5.3672    3.2718   -2.4202 H         1 <0>         0.0674
     45 H7          6.1751   -0.6943   -4.4052 H         1 <0>         0.1084
     46 H8          4.8825   -0.7955   -6.4224 H         1 <0>         0.0713
     47 H9          4.7694   -2.5199   -5.9538 H         1 <0>         0.1260
     48 H10         2.6229   -0.5479   -6.0567 H         1 <0>         0.0679
     49 H11         2.5098   -2.2723   -5.5882 H         1 <0>         0.1405
     50 H12         2.0754   -0.2480   -3.7419 H         1 <0>         0.1033
     51 H13         2.9698   -1.9678   -2.0317 H         1 <0>         0.0795
     52 H14         1.8507   -2.6713   -3.2270 H         1 <0>         0.1247
     53 H15         3.9412   -4.0420   -2.8877 H         1 <0>         0.1140
     54 H16         6.0392   -3.1235   -3.9148 H         1 <0>         0.0889
     55 H17         5.5276   -2.2440   -2.4517 H         1 <0>         0.0896
     56 H18         5.6762   -3.9733   -5.4207 H         1 <0>         0.1798
     57 H19         5.1715   -4.7023   -7.7419 H         1 <0>         0.1885
     58 H20        -0.2792   -6.3802   -7.6114 H         1 <0>         0.1360
     59 H21        -1.4869   -6.9568   -9.6714 H         1 <0>         0.1445
     60 H22         0.6314   -1.3945   -8.4969 H         1 <0>         0.1881
     61 H23        -1.7279   -2.6566   -7.4632 H         1 <0>         0.1409
     62 H24        -4.1182   -2.3188   -6.9876 H         1 <0>         0.1597
     63 H25        -3.6356   -3.5518   -3.0537 H         1 <0>         0.1621
     64 H26        -1.2305   -3.9425   -3.3947 H         1 <0>         0.1415
@<TRIPOS>BOND
     1    1    2 1
     2    1   40 1
     3    1   41 1
     4    1   42 1
     5    2    3 1
     6    2   43 1
     7    2   44 1
     8    3    4 1
     9    4    5 2
    10    4    6 am
    11    6   10 1
    12    6    7 1
    13    7   13 1
    14    7    8 1
    15    7   45 1
    16    8    9 1
    17    8   46 1
    18    8   47 1
    19    9   10 1
    20    9   48 1
    21    9   49 1
    22   10   11 1
    23   10   50 1
    24   11   12 1
    25   11   51 1
    26   11   52 1
    27   12   13 1
    28   12   14 1
    29   12   53 1
    30   13   54 1
    31   13   55 1
    32   14   19 1
    33   14   15 2
    34   15   16 1
    35   15   56 1
    36   16   17 2
    37   16   57 1
    38   17   18 1
    39   18   22 2
    40   18   19 1
    41   19   20 1
    42   20   21 2
    43   21   22 1
    44   21   34 1
    45   22   23 1
    46   23   28 ar
    47   23   24 ar
    48   24   25 ar
    49   24   58 1
    50   25   26 ar
    51   25   59 1
    52   26   27 ar
    53   26   33 1
    54   27   31 1
    55   27   28 ar
    56   28   29 1
    57   29   30 2
    58   29   60 1
    59   30   31 1
    60   31   32 1
    61   34   39 ar
    62   34   35 ar
    63   35   36 ar
    64   35   61 1
    65   36   37 ar
    66   36   62 1
    67   37   38 ar
    68   38   39 ar
    69   38   63 1
    70   39   64 1
@<TRIPOS>MOLECULE
CHEMBL391781
   46    49     0     0     0
SMALL
USER_CHARGES

@<TRIPOS>ATOM
      1 C1         -0.0037    1.2844    0.0416 C.ar      1 <0>        -0.1888
      2 C2          1.1431    2.0396   -0.1471 C.ar      1 <0>        -0.0326
      3 C3          2.3591    1.4228   -0.3573 C.ar      1 <0>        -0.2111
      4 C4          2.4413    0.0359   -0.3811 C.ar      1 <0>         0.2839
      5 C5          1.2818   -0.7317   -0.1903 C.ar      1 <0>        -0.2353
      6 C6          0.0577   -0.0915    0.0214 C.ar      1 <0>        -0.0322
      7 C7          1.3547   -2.2037   -0.2137 C.2       1 <0>         0.5766
      8 O1          2.4344   -2.7580   -0.2919 O.2       1 <0>        -0.5281
      9 N1          0.2247   -2.9355   -0.1483 N.am      1 <0>        -0.6660
     10 C8          0.2985   -4.3312   -0.0611 C.ar      1 <0>         0.1727
     11 C9         -0.6771   -5.1172   -0.6599 C.ar      1 <0>        -0.1246
     12 C10        -0.6054   -6.4938   -0.5729 C.ar      1 <0>        -0.0648
     13 C11         0.4402   -7.0954    0.1119 C.ar      1 <0>         0.0303
     14 C12         1.4195   -6.3114    0.7105 C.ar      1 <0>         0.0732
     15 C13         1.3497   -4.9297    0.6191 C.ar      1 <0>        -0.0966
     16 O2          2.4572   -6.8838    1.3800 O.3       1 <0>        -0.2937
     17 C14         2.2981   -8.2538    1.7643 C.3       1 <0>         0.4130
     18 C15         1.7494   -9.0302    0.5595 C.3       1 <0>         0.4130
     19 O3          0.4916   -8.4542    0.1905 O.3       1 <0>        -0.2946
     20 F1          2.6448   -8.9341   -0.5112 F         1 <0>        -0.1493
     21 F2          1.5696  -10.3736    0.9061 F         1 <0>        -0.1218
     22 F3          3.5359   -8.7842    2.1434 F         1 <0>        -0.1213
     23 F4          1.3988   -8.3428    2.8322 F         1 <0>        -0.1493
     24 N2          3.6641   -0.5874   -0.5930 N.pl3     1 <0>        -0.7209
     25 C16         4.8468    0.2123   -0.9214 C.3       1 <0>         0.1557
     26 C17         6.0347   -0.6976   -1.1004 C.ar      1 <0>        -0.0633
     27 C18         6.8437   -1.0286   -0.0242 C.ar      1 <0>        -0.1534
     28 C19         7.9244   -1.8659   -0.2265 C.ar      1 <0>         0.0998
     29 N3          8.1894   -2.3476   -1.4252 N.ar      1 <0>        -0.4783
     30 C20         7.4419   -2.0542   -2.4712 C.ar      1 <0>         0.0997
     31 C21         6.3411   -1.2283   -2.3442 C.ar      1 <0>        -0.1530
     32 H1         -0.9498    1.7774    0.2099 H         1 <0>         0.1277
     33 H2          1.0844    3.1179   -0.1298 H         1 <0>         0.1287
     34 H3          3.2480    2.0184   -0.5038 H         1 <0>         0.1299
     35 H4         -0.8390   -0.6750    0.1691 H         1 <0>         0.1244
     36 H5         -0.6396   -2.4954   -0.1616 H         1 <0>         0.4181
     37 H6         -1.4925   -4.6519   -1.1937 H         1 <0>         0.1510
     38 H7         -1.3655   -7.1033   -1.0389 H         1 <0>         0.1560
     39 H8          2.1112   -4.3190    1.0812 H         1 <0>         0.1597
     40 H9          3.7351   -1.5523   -0.5235 H         1 <0>         0.4212
     41 H10         4.6682    0.7626   -1.8452 H         1 <0>         0.0769
     42 H11         5.0462    0.9152   -0.1126 H         1 <0>         0.0770
     43 H12         6.6322   -0.6368    0.9597 H         1 <0>         0.1367
     44 H13         8.5595   -2.1286    0.6066 H         1 <0>         0.1589
     45 H14         7.6904   -2.4675   -3.4376 H         1 <0>         0.1587
     46 H15         5.7299   -0.9957   -3.2036 H         1 <0>         0.1363
@<TRIPOS>BOND
     1    1    6 ar
     2    1    2 ar
     3    1   32 1
     4    2    3 ar
     5    2   33 1
     6    3    4 ar
     7    3   34 1
     8    4    5 ar
     9    4   24 1
    10    5    6 ar
    11    5    7 1
    12    6   35 1
    13    7    8 2
    14    7    9 am
    15    9   10 1
    16    9   36 1
    17   10   15 ar
    18   10   11 ar
    19   11   12 ar
    20   11   37 1
    21   12   13 ar
    22   12   38 1
    23   13   19 1
    24   13   14 ar
    25   14   15 ar
    26   14   16 1
    27   15   39 1
    28   16   17 1
    29   17   18 1
    30   17   22 1
    31   17   23 1
    32   18   19 1
    33   18   20 1
    34   18   21 1
    35   24   25 1
    36   24   40 1
    37   25   26 1
    38   25   41 1
    39   25   42 1
    40   26   31 ar
    41   26   27 ar
    42   27   28 ar
    43   27   43 1
    44   28   29 ar
    45   28   44 1
    46   29   30 ar
    47   30   31 ar
    48   30   45 1
    49   31   46 1
@<TRIPOS>MOLECULE
CHEMBL166031
   46    48     0     0     0
SMALL
USER_CHARGES

@<TRIPOS>ATOM
      1 C1         -0.0400    4.9949   -2.9120 C.3       1 <0>        -0.1419
      2 C2         -0.5827    3.7890   -2.1426 C.3       1 <0>         0.0018
      3 C3         -0.2902    3.9621   -0.6508 C.3       1 <0>        -0.1416
      4 C4         -2.0940    3.6852   -2.3572 C.3       1 <0>        -0.1485
      5 C5          0.0832    2.5330   -2.6426 C.2       1 <0>         0.0935
      6 C6          1.4020    2.2727   -2.6096 C.2       1 <0>        -0.2790
      7 C7          1.6109    0.9938   -3.1729 C.2       1 <0>         0.3475
      8 N1          0.4456    0.5158   -3.5274 N.2       1 <0>        -0.3539
      9 O1         -0.5381    1.4780   -3.1926 O.3       1 <0>        -0.0629
     10 N2          2.8412    0.3545   -3.3248 N.am      1 <0>        -0.6385
     11 C8          3.9719    0.9629   -2.9150 C.2       1 <0>         0.7175
     12 O2          3.9194    2.0690   -2.4129 O.2       1 <0>        -0.5394
     13 N3          5.1607    0.3451   -3.0617 N.am      1 <0>        -0.6743
     14 C9          6.3461    1.0238   -2.7496 C.ar      1 <0>         0.1637
     15 C10         7.4924    0.8010   -3.5008 C.ar      1 <0>        -0.1260
     16 C11         8.6602    1.4704   -3.1930 C.ar      1 <0>        -0.0986
     17 C12         8.6884    2.3656   -2.1334 C.ar      1 <0>         0.0642
     18 C13         7.5433    2.5887   -1.3825 C.ar      1 <0>        -0.1054
     19 C14         6.3735    1.9237   -1.6926 C.ar      1 <0>        -0.1030
     20 O3          9.8386    3.0242   -1.8306 O.3       1 <0>        -0.2500
     21 C15        10.5974    2.5459   -0.8120 C.ar      1 <0>         0.1633
     22 C16        11.7188    3.2430   -0.3683 C.ar      1 <0>        -0.2003
     23 C17        12.4642    2.7234    0.6698 C.ar      1 <0>         0.1338
     24 N4         12.1266    1.5820    1.2397 N.ar      1 <0>        -0.5056
     25 C18        11.0717    0.8927    0.8476 C.ar      1 <0>         0.1350
     26 C19        10.2715    1.3482   -0.1799 C.ar      1 <0>        -0.2481
     27 H1          1.0367    5.0689   -2.7591 H         1 <0>         0.0658
     28 H2         -0.2484    4.8716   -3.9748 H         1 <0>         0.0619
     29 H3         -0.5216    5.9034   -2.5504 H         1 <0>         0.0741
     30 H4         -0.7718    4.8706   -0.2892 H         1 <0>         0.0740
     31 H5         -0.6768    3.1030   -0.1026 H         1 <0>         0.0620
     32 H6          0.7865    4.0361   -0.4979 H         1 <0>         0.0657
     33 H7         -2.3024    3.5618   -3.4200 H         1 <0>         0.0642
     34 H8         -2.4807    2.8260   -1.8090 H         1 <0>         0.0642
     35 H9         -2.5756    4.5937   -1.9956 H         1 <0>         0.0702
     36 H10         2.1681    2.9272   -2.2208 H         1 <0>         0.1834
     37 H11         2.8830   -0.5280   -3.7253 H         1 <0>         0.4207
     38 H12         5.1956   -0.5693   -3.3833 H         1 <0>         0.4146
     39 H13         7.4707    0.1039   -4.3254 H         1 <0>         0.1384
     40 H14         9.5520    1.2969   -3.7770 H         1 <0>         0.1395
     41 H15         7.5658    3.2856   -0.5577 H         1 <0>         0.1368
     42 H16         5.4811    2.1005   -1.1105 H         1 <0>         0.1521
     43 H17        12.0010    4.1773   -0.8308 H         1 <0>         0.1450
     44 H18        13.3352    3.2572    1.0203 H         1 <0>         0.1655
     45 H19        10.8294   -0.0375    1.3400 H         1 <0>         0.1594
     46 H20         9.4070    0.7816   -0.4928 H         1 <0>         0.1391
@<TRIPOS>BOND
     1    1    2 1
     2    1   27 1
     3    1   28 1
     4    1   29 1
     5    2    3 1
     6    2    4 1
     7    2    5 1
     8    3   30 1
     9    3   31 1
    10    3   32 1
    11    4   33 1
    12    4   34 1
    13    4   35 1
    14    5    9 1
    15    5    6 2
    16    6    7 1
    17    6   36 1
    18    7    8 2
    19    7   10 1
    20    8    9 1
    21   10   11 am
    22   10   37 1
    23   11   12 2
    24   11   13 am
    25   13   14 1
    26   13   38 1
    27   14   19 ar
    28   14   15 ar
    29   15   16 ar
    30   15   39 1
    31   16   17 ar
    32   16   40 1
    33   17   18 ar
    34   17   20 1
    35   18   19 ar
    36   18   41 1
    37   19   42 1
    38   20   21 1
    39   21   26 ar
    40   21   22 ar
    41   22   23 ar
    42   22   43 1
    43   23   24 ar
    44   23   44 1
    45   24   25 ar
    46   25   26 ar
    47   25   45 1
    48   26   46 1
@<TRIPOS>MOLECULE
CHEMBL166031__1
   47    49     0     0     0
SMALL
USER_CHARGES

@<TRIPOS>ATOM
      1 C1         -0.0400    4.9949   -2.9120 C.3       1 <0>        -0.1417
      2 C2         -0.5827    3.7890   -2.1426 C.3       1 <0>         0.0006
      3 C3         -0.2902    3.9621   -0.6508 C.3       1 <0>        -0.1410
      4 C4         -2.0940    3.6852   -2.3572 C.3       1 <0>        -0.1502
      5 C5          0.0832    2.5330   -2.6426 C.2       1 <0>         0.0992
      6 C6          1.4020    2.2727   -2.6096 C.2       1 <0>        -0.2825
      7 C7          1.6109    0.9938   -3.1729 C.2       1 <0>         0.3422
      8 N1          0.4456    0.5158   -3.5274 N.2       1 <0>        -0.3483
      9 O1         -0.5381    1.4780   -3.1926 O.3       1 <0>        -0.0581
     10 N2          2.8412    0.3545   -3.3248 N.am      1 <0>        -0.6355
     11 C8          3.9719    0.9629   -2.9150 C.2       1 <0>         0.7199
     12 O2          3.9194    2.0690   -2.4129 O.2       1 <0>        -0.5380
     13 N3          5.1607    0.3451   -3.0617 N.am      1 <0>        -0.6780
     14 C9          6.3461    1.0238   -2.7496 C.ar      1 <0>         0.1924
     15 C10         7.4924    0.8010   -3.5008 C.ar      1 <0>        -0.1273
     16 C11         8.6602    1.4704   -3.1930 C.ar      1 <0>        -0.0825
     17 C12         8.6884    2.3656   -2.1334 C.ar      1 <0>         0.0151
     18 C13         7.5433    2.5887   -1.3825 C.ar      1 <0>        -0.0938
     19 C14         6.3735    1.9237   -1.6926 C.ar      1 <0>        -0.1053
     20 O3          9.8386    3.0242   -1.8306 O.3       1 <0>        -0.2088
     21 C15        10.5974    2.5459   -0.8120 C.ar      1 <0>         0.2463
     22 C16        11.7188    3.2430   -0.3683 C.ar      1 <0>        -0.1591
     23 C17        12.4642    2.7234    0.6698 C.ar      1 <0>         0.1646
     24 N4         12.1266    1.5820    1.2397 N.ar      1 <0>        -0.4719
     25 C18        11.0717    0.8927    0.8476 C.ar      1 <0>         0.1689
     26 C19        10.2715    1.3482   -0.1799 C.ar      1 <0>        -0.2123
     27 H1          1.0367    5.0689   -2.7591 H         1 <0>         0.0643
     28 H2         -0.2484    4.8716   -3.9748 H         1 <0>         0.0628
     29 H3         -0.5216    5.9034   -2.5504 H         1 <0>         0.0756
     30 H4         -0.7718    4.8706   -0.2892 H         1 <0>         0.0754
     31 H5         -0.6768    3.1030   -0.1026 H         1 <0>         0.0624
     32 H6          0.7865    4.0361   -0.4979 H         1 <0>         0.0639
     33 H7         -2.3024    3.5618   -3.4200 H         1 <0>         0.0653
     34 H8         -2.4807    2.8260   -1.8090 H         1 <0>         0.0651
     35 H9         -2.5756    4.5937   -1.9956 H         1 <0>         0.0718
     36 H10         2.1681    2.9272   -2.2208 H         1 <0>         0.1825
     37 H11         2.8830   -0.5280   -3.7253 H         1 <0>         0.4225
     38 H12         5.1956   -0.5693   -3.3833 H         1 <0>         0.4187
     39 H13         7.4707    0.1039   -4.3254 H         1 <0>         0.1473
     40 H14         9.5520    1.2969   -3.7770 H         1 <0>         0.1454
     41 H15         7.5658    3.2856   -0.5577 H         1 <0>         0.1417
     42 H16         5.4811    2.1005   -1.1105 H         1 <0>         0.1601
     43 H17        12.0010    4.1773   -0.8308 H         1 <0>         0.1932
     44 H18        13.3352    3.2572    1.0203 H         1 <0>         0.2168
     45 H19        10.8294   -0.0375    1.3399 H         1 <0>         0.2118
     46 H20         9.4070    0.7816   -0.4928 H         1 <0>         0.1852
     47 H21        12.6693    1.2398    1.9672 H         1 <0>         0.4533
@<TRIPOS>BOND
     1    1    2 1
     2    1   27 1
     3    1   28 1
     4    1   29 1
     5    2    3 1
     6    2    4 1
     7    2    5 1
     8    3   30 1
     9    3   31 1
    10    3   32 1
    11    4   33 1
    12    4   34 1
    13    4   35 1
    14    5    9 1
    15    5    6 2
    16    6    7 1
    17    6   36 1
    18    7    8 2
    19    7   10 1
    20    8    9 1
    21   10   11 am
    22   10   37 1
    23   11   12 2
    24   11   13 am
    25   13   14 1
    26   13   38 1
    27   14   19 ar
    28   14   15 ar
    29   15   16 ar
    30   15   39 1
    31   16   17 ar
    32   16   40 1
    33   17   18 ar
    34   17   20 1
    35   18   19 ar
    36   18   41 1
    37   19   42 1
    38   20   21 1
    39   21   26 ar
    40   21   22 ar
    41   22   23 ar
    42   22   43 1
    43   23   24 ar
    44   23   44 1
    45   24   25 ar
    46   24   47 1
    47   25   26 ar
    48   25   45 1
    49   26   46 1
@<TRIPOS>MOLECULE
CHEMBL166030
   54    56     0     0     0
SMALL
USER_CHARGES

@<TRIPOS>ATOM
      1 C1          8.0242   -6.1961   -6.2148 C.3       1 <0>        -0.1417
      2 C2          7.2047   -5.5933   -7.3575 C.3       1 <0>         0.0021
      3 C3          8.1235   -4.7770   -8.2687 C.3       1 <0>        -0.1418
      4 C4          6.5526   -6.7171   -8.1655 C.3       1 <0>        -0.1482
      5 C5          6.1347   -4.6967   -6.7898 C.2       1 <0>         0.0924
      6 C6          6.3407   -3.6050   -6.0321 C.2       1 <0>        -0.2782
      7 C7          5.0814   -3.0515   -5.7090 C.2       1 <0>         0.3484
      8 N1          4.1604   -3.7983   -6.2623 N.2       1 <0>        -0.3547
      9 O1          4.8114   -4.8462   -6.9577 O.3       1 <0>        -0.0636
     10 N2          4.8594   -1.9114   -4.9368 N.am      1 <0>        -0.6390
     11 C8          5.9037   -1.2314   -4.4234 C.2       1 <0>         0.7172
     12 O2          7.0392   -1.6119   -4.6333 O.2       1 <0>        -0.5398
     13 N3          5.6892   -0.1298   -3.6772 N.am      1 <0>        -0.6733
     14 C9          6.7680    0.5246   -3.0678 C.ar      1 <0>         0.1622
     15 C10         6.6092    1.1107   -1.8192 C.ar      1 <0>        -0.1253
     16 C11         7.6728    1.7551   -1.2189 C.ar      1 <0>        -0.0978
     17 C12         8.8999    1.8173   -1.8634 C.ar      1 <0>         0.0666
     18 C13         9.0591    1.2318   -3.1111 C.ar      1 <0>        -0.1103
     19 C14         7.9978    0.5823   -3.7098 C.ar      1 <0>        -0.1000
     20 O3          9.9465    2.4526   -1.2723 O.3       1 <0>        -0.2520
     21 C15        10.2931    3.6809   -1.7389 C.ar      1 <0>         0.1162
     22 C16        11.2936    4.4070   -1.1059 C.ar      1 <0>        -0.1182
     23 C17        11.6506    5.6568   -1.5764 C.ar      1 <0>        -0.0875
     24 C18        11.0151    6.1914   -2.6787 C.ar      1 <0>        -0.1201
     25 C19        10.0085    5.4693   -3.3216 C.ar      1 <0>        -0.0995
     26 C20         9.6526    4.2058   -2.8489 C.ar      1 <0>        -0.1383
     27 C21         9.3251    6.0392   -4.5025 C.2       1 <0>         0.5562
     28 O4          8.4488    5.4084   -5.0607 O.2       1 <0>        -0.5307
     29 N4          9.6740    7.2580   -4.9599 N.am      1 <0>        -0.7301
     30 C22         8.9969    7.8226   -6.1299 C.3       1 <0>         0.0862
     31 H1          8.4888   -5.3956   -5.6392 H         1 <0>         0.0660
     32 H2          7.3696   -6.7777   -5.5657 H         1 <0>         0.0618
     33 H3          8.7981   -6.8446   -6.6254 H         1 <0>         0.0737
     34 H4          8.8974   -5.4255   -8.6794 H         1 <0>         0.0737
     35 H5          7.5397   -4.3475   -9.0828 H         1 <0>         0.0619
     36 H6          8.5881   -3.9764   -7.6931 H         1 <0>         0.0659
     37 H7          5.8979   -7.2986   -7.5164 H         1 <0>         0.0641
     38 H8          5.9687   -6.2876   -8.9796 H         1 <0>         0.0641
     39 H9          7.3264   -7.3656   -8.5762 H         1 <0>         0.0699
     40 H10         7.3011   -3.2189   -5.7240 H         1 <0>         0.1836
     41 H11         3.9535   -1.6079   -4.7693 H         1 <0>         0.4205
     42 H12         4.7880    0.2101   -3.5620 H         1 <0>         0.4142
     43 H13         5.6539    1.0630   -1.3177 H         1 <0>         0.1377
     44 H14         7.5494    2.2110   -0.2476 H         1 <0>         0.1395
     45 H15        10.0144    1.2809   -3.6126 H         1 <0>         0.1363
     46 H16         8.1231    0.1227   -4.6791 H         1 <0>         0.1501
     47 H17        11.7942    3.9938   -0.2427 H         1 <0>         0.1397
     48 H18        12.4291    6.2168   -1.0797 H         1 <0>         0.1401
     49 H19        11.2963    7.1683   -3.0435 H         1 <0>         0.1291
     50 H20         8.8773    3.6405   -3.3446 H         1 <0>         0.1445
     51 H21        10.3733    7.7613   -4.5144 H         1 <0>         0.4026
     52 H22         7.9306    7.9141   -5.9237 H         1 <0>         0.0623
     53 H23         9.4104    8.8071   -6.3490 H         1 <0>         0.0787
     54 H24         9.1462    7.1668   -6.9877 H         1 <0>         0.0625
@<TRIPOS>BOND
     1    1    2 1
     2    1   31 1
     3    1   32 1
     4    1   33 1
     5    2    3 1
     6    2    4 1
     7    2    5 1
     8    3   34 1
     9    3   35 1
    10    3   36 1
    11    4   37 1
    12    4   38 1
    13    4   39 1
    14    5    9 1
    15    5    6 2
    16    6    7 1
    17    6   40 1
    18    7    8 2
    19    7   10 1
    20    8    9 1
    21   10   11 am
    22   10   41 1
    23   11   12 2
    24   11   13 am
    25   13   14 1
    26   13   42 1
    27   14   19 ar
    28   14   15 ar
    29   15   16 ar
    30   15   43 1
    31   16   17 ar
    32   16   44 1
    33   17   18 ar
    34   17   20 1
    35   18   19 ar
    36   18   45 1
    37   19   46 1
    38   20   21 1
    39   21   26 ar
    40   21   22 ar
    41   22   23 ar
    42   22   47 1
    43   23   24 ar
    44   23   48 1
    45   24   25 ar
    46   24   49 1
    47   25   26 ar
    48   25   27 1
    49   26   50 1
    50   27   28 2
    51   27   29 am
    52   29   30 1
    53   29   51 1
    54   30   52 1
    55   30   53 1
    56   30   54 1
@<TRIPOS>MOLECULE
CHEMBL471756
   48    50     0     0     0
SMALL
USER_CHARGES

@<TRIPOS>ATOM
      1 C1         -0.0270    1.5354   -0.0068 C.3       1 <0>        -0.1418
      2 C2         -0.0020    0.0056   -0.0046 C.3       1 <0>         0.0020
      3 C3          0.7381   -0.4906    1.2391 C.3       1 <0>        -0.1415
      4 C4         -1.4359   -0.5278    0.0084 C.3       1 <0>        -0.1483
      5 C5          0.7060   -0.4870   -1.2404 C.2       1 <0>         0.0925
      6 C6          1.9799   -0.2206   -1.5786 C.2       1 <0>        -0.2784
      7 C7          2.2531   -0.8690   -2.8040 C.2       1 <0>         0.3484
      8 N1          1.1684   -1.4994   -3.1755 N.2       1 <0>        -0.3552
      9 O1          0.1759   -1.2724   -2.1911 O.3       1 <0>        -0.0637
     10 N2          3.4643   -0.8418   -3.4950 N.am      1 <0>        -0.6399
     11 C8          4.5084   -0.1496   -2.9979 C.2       1 <0>         0.7160
     12 O2          4.3945    0.4512   -1.9470 O.2       1 <0>        -0.5405
     13 N3          5.6789   -0.1233   -3.6656 N.am      1 <0>        -0.6740
     14 C9          6.7319    0.6725   -3.2008 C.ar      1 <0>         0.1544
     15 C10         7.5810    1.2996   -4.1032 C.ar      1 <0>        -0.1374
     16 C11         8.6194    2.0843   -3.6413 C.ar      1 <0>        -0.0929
     17 C12         8.8143    2.2456   -2.2819 C.ar      1 <0>        -0.0906
     18 C13         7.9706    1.6225   -1.3807 C.ar      1 <0>        -0.0931
     19 C14         6.9266    0.8415   -1.8363 C.ar      1 <0>        -0.1134
     20 C15         9.9490    3.1018   -1.7813 C.3       1 <0>        -0.0431
     21 C16         9.4749    4.5240   -1.6271 C.ar      1 <0>        -0.0324
     22 C17         9.5690    5.4215   -2.6797 C.ar      1 <0>        -0.1693
     23 C18         9.1241    6.7178   -2.5013 C.ar      1 <0>         0.1004
     24 N4          8.6157    7.1036   -1.3473 N.ar      1 <0>        -0.4886
     25 C19         8.5108    6.2774   -0.3249 C.ar      1 <0>         0.1011
     26 C20         8.9292    4.9645   -0.4311 C.ar      1 <0>        -0.1682
     27 H1          0.9946    1.9155   -0.0162 H         1 <0>         0.0658
     28 H2         -0.5543    1.8889   -0.8929 H         1 <0>         0.0618
     29 H3         -0.5391    1.8917    0.8870 H         1 <0>         0.0739
     30 H4          0.2260   -0.1343    2.1329 H         1 <0>         0.0738
     31 H5          0.7559   -1.5804    1.2407 H         1 <0>         0.0619
     32 H6          1.7597   -0.1105    1.2298 H         1 <0>         0.0657
     33 H7         -1.9632   -0.1743   -0.8776 H         1 <0>         0.0641
     34 H8         -1.4181   -1.6177    0.0100 H         1 <0>         0.0641
     35 H9         -1.9480   -0.1715    0.9023 H         1 <0>         0.0700
     36 H10         2.6732    0.3838   -1.0126 H         1 <0>         0.1833
     37 H11         3.5553   -1.3211   -4.3334 H         1 <0>         0.4199
     38 H12         5.7913   -0.6561   -4.4684 H         1 <0>         0.4123
     39 H13         7.4297    1.1734   -5.1651 H         1 <0>         0.1278
     40 H14         9.2800    2.5723   -4.3426 H         1 <0>         0.1279
     41 H15         8.1256    1.7502   -0.3195 H         1 <0>         0.1270
     42 H16         6.2653    0.3587   -1.1320 H         1 <0>         0.1425
     43 H17        10.2897    2.7258   -0.8166 H         1 <0>         0.0886
     44 H18        10.7717    3.0685   -2.4955 H         1 <0>         0.0884
     45 H19         9.9851    5.1117   -3.6270 H         1 <0>         0.1336
     46 H20         9.1939    7.4230   -3.3163 H         1 <0>         0.1553
     47 H21         8.0894    6.6297    0.6050 H         1 <0>         0.1557
     48 H22         8.8361    4.2913    0.4083 H         1 <0>         0.1341
@<TRIPOS>BOND
     1    1    2 1
     2    1   27 1
     3    1   28 1
     4    1   29 1
     5    2    3 1
     6    2    4 1
     7    2    5 1
     8    3   30 1
     9    3   31 1
    10    3   32 1
    11    4   33 1
    12    4   34 1
    13    4   35 1
    14    5    9 1
    15    5    6 2
    16    6    7 1
    17    6   36 1
    18    7    8 2
    19    7   10 1
    20    8    9 1
    21   10   11 am
    22   10   37 1
    23   11   12 2
    24   11   13 am
    25   13   14 1
    26   13   38 1
    27   14   19 ar
    28   14   15 ar
    29   15   16 ar
    30   15   39 1
    31   16   17 ar
    32   16   40 1
    33   17   18 ar
    34   17   20 1
    35   18   19 ar
    36   18   41 1
    37   19   42 1
    38   20   21 1
    39   20   43 1
    40   20   44 1
    41   21   26 ar
    42   21   22 ar
    43   22   23 ar
    44   22   45 1
    45   23   24 ar
    46   23   46 1
    47   24   25 ar
    48   25   26 ar
    49   25   47 1
    50   26   48 1
@<TRIPOS>MOLECULE
CHEMBL1089082
   50    54     0     0     0
SMALL
USER_CHARGES

@<TRIPOS>ATOM
      1 C1         -0.0053    1.3819    0.0194 C.ar      1 <0>        -0.0974
      2 C2          1.1799    2.0889    0.0213 C.ar      1 <0>        -0.0835
      3 C3          2.3990    1.4080    0.0091 C.ar      1 <0>        -0.0573
      4 C4          2.4131    0.0127   -0.0050 C.ar      1 <0>        -0.0821
      5 C5          1.2172   -0.6877   -0.0068 C.ar      1 <0>         0.1421
      6 C6          0.0089   -0.0001    0.0054 C.ar      1 <0>        -0.1185
      7 N1          1.2258   -2.0863   -0.0214 N.am      1 <0>        -0.6674
      8 C7          2.1817   -2.7472   -0.7040 C.2       1 <0>         0.5626
      9 O1          3.0841   -2.1311   -1.2368 O.2       1 <0>        -0.5069
     10 C8          2.1328   -4.2211   -0.8047 C.ar      1 <0>        -0.1387
     11 C9          1.0947   -4.9311   -0.1989 C.ar      1 <0>        -0.0538
     12 C10         1.0547   -6.3064   -0.2971 C.ar      1 <0>        -0.1226
     13 C11         2.0406   -6.9823   -0.9943 C.ar      1 <0>        -0.0416
     14 C12         3.0721   -6.2847   -1.5970 C.ar      1 <0>        -0.1880
     15 C13         3.1211   -4.9085   -1.5109 C.ar      1 <0>        -0.0065
     16 C14         4.1417   -7.0292   -2.3538 C.3       1 <0>         0.5099
     17 F1          3.8769   -8.4021   -2.3062 F         1 <0>        -0.1740
     18 F2          4.1532   -6.6024   -3.6860 F         1 <0>        -0.1723
     19 F3          5.3881   -6.7743   -1.7716 F         1 <0>        -0.1725
     20 C15         3.6694    2.1622    0.0106 C.2       1 <0>         0.2419
     21 C16         4.5370    2.0745    1.0792 C.2       1 <0>        -0.2097
     22 C17         5.7310    2.8011    1.0492 C.2       1 <0>         0.1859
     23 N2          6.0230    3.5582    0.0170 N.2       1 <0>        -0.4629
     24 C18         5.1930    3.6564   -1.0306 C.2       1 <0>         0.2628
     25 N3          4.0111    2.9596   -1.0550 N.pl3     1 <0>        -0.2989
     26 N4          3.3656    3.2491   -2.2622 N.2       1 <0>        -0.2862
     27 C19         4.1186    4.0841   -2.9570 C.2       1 <0>         0.1458
     28 C20         5.2681    4.3718   -2.2167 C.2       1 <0>        -0.2437
     29 C21         3.7910    4.6353   -4.2954 C.ar      1 <0>         0.0247
     30 C22         4.6661    5.5098   -4.9453 C.ar      1 <0>        -0.1444
     31 C23         4.3227    5.9990   -6.1890 C.ar      1 <0>         0.1014
     32 N5          3.1868    5.6519   -6.7631 N.ar      1 <0>        -0.4784
     33 C24         2.3334    4.8294   -6.1837 C.ar      1 <0>         0.1003
     34 C25         2.6017    4.2893   -4.9426 C.ar      1 <0>        -0.1418
     35 H1         -0.9471    1.9103    0.0333 H         1 <0>         0.1375
     36 H2          1.1646    3.1688    0.0319 H         1 <0>         0.1263
     37 H3          3.3528   -0.5196   -0.0148 H         1 <0>         0.1463
     38 H4         -0.9219   -0.5478    0.0044 H         1 <0>         0.1340
     39 H5          0.5439   -2.5805    0.4598 H         1 <0>         0.4135
     40 H6          0.3248   -4.4049    0.3458 H         1 <0>         0.1375
     41 H7          0.2523   -6.8569    0.1714 H         1 <0>         0.1471
     42 H8          2.0049   -8.0592   -1.0679 H         1 <0>         0.1481
     43 H9          3.9245   -4.3648   -1.9856 H         1 <0>         0.1495
     44 H10         4.2968    1.4525    1.9288 H         1 <0>         0.1700
     45 H11         6.4174    2.7397    1.8807 H         1 <0>         0.1859
     46 H12         6.0751    5.0228   -2.5189 H         1 <0>         0.1672
     47 H13         5.5974    5.7987   -4.4809 H         1 <0>         0.1432
     48 H14         4.9926    6.6754   -6.6990 H         1 <0>         0.1630
     49 H15         1.4146    4.5717   -6.6896 H         1 <0>         0.1610
     50 H16         1.9007    3.6130   -4.4762 H         1 <0>         0.1417
@<TRIPOS>BOND
     1    1    6 ar
     2    1    2 ar
     3    1   35 1
     4    2    3 ar
     5    2   36 1
     6    3    4 ar
     7    3   20 1
     8    4    5 ar
     9    4   37 1
    10    5    6 ar
    11    5    7 1
    12    6   38 1
    13    7    8 am
    14    7   39 1
    15    8    9 2
    16    8   10 1
    17   10   15 ar
    18   10   11 ar
    19   11   12 ar
    20   11   40 1
    21   12   13 ar
    22   12   41 1
    23   13   14 ar
    24   13   42 1
    25   14   15 ar
    26   14   16 1
    27   15   43 1
    28   16   17 1
    29   16   18 1
    30   16   19 1
    31   20   25 1
    32   20   21 2
    33   21   22 1
    34   21   44 1
    35   22   23 2
    36   22   45 1
    37   23   24 1
    38   24   28 2
    39   24   25 1
    40   25   26 1
    41   26   27 2
    42   27   28 1
    43   27   29 1
    44   28   46 1
    45   29   34 ar
    46   29   30 ar
    47   30   31 ar
    48   30   47 1
    49   31   32 ar
    50   31   48 1
    51   32   33 ar
    52   33   34 ar
    53   33   49 1
    54   34   50 1
@<TRIPOS>MOLECULE
CHEMBL1088768
   51    55     0     0     0
SMALL
USER_CHARGES

@<TRIPOS>ATOM
      1 C1         -0.5137    1.4035    0.0658 C.3       1 <0>         0.0615
      2 N1         -0.2315   -0.0334    0.0234 N.pl3     1 <0>        -0.4488
      3 C2         -0.2434   -0.8216   -1.0735 C.2       1 <0>         0.2053
      4 N2          0.0574   -2.0428   -0.7223 N.2       1 <0>        -0.4942
      5 C3          0.2721   -2.0888    0.5977 C.2       1 <0>         0.0343
      6 C4          0.1015   -0.8333    1.0928 C.2       1 <0>         0.0250
      7 C5          0.2430   -0.4112    2.5040 C.2       1 <0>         0.1939
      8 C6          0.1752    0.9049    2.9727 C.2       1 <0>        -0.2701
      9 C7          0.3557    0.8701    4.3473 C.2       1 <0>         0.2693
     10 N3          0.3815    1.8349    5.2772 N.2       1 <0>        -0.4673
     11 C8          0.5723    1.5539    6.5458 C.2       1 <0>         0.1877
     12 C9          0.7548    0.2310    6.9579 C.2       1 <0>        -0.2137
     13 C10         0.7315   -0.7766    6.0157 C.2       1 <0>         0.2467
     14 N4          0.5290   -0.4452    4.6982 N.pl3     1 <0>        -0.2991
     15 N5          0.4490   -1.2164    3.5334 N.2       1 <0>        -0.2834
     16 C11         0.9205   -2.1859    6.4166 C.ar      1 <0>        -0.0580
     17 C12         2.0454   -2.8925    5.9849 C.ar      1 <0>        -0.0823
     18 C13         2.2194   -4.2086    6.3607 C.ar      1 <0>        -0.0972
     19 C14         1.2830   -4.8327    7.1640 C.ar      1 <0>        -0.1179
     20 C15         0.1600   -4.1387    7.5985 C.ar      1 <0>         0.1415
     21 C16        -0.0210   -2.8139    7.2321 C.ar      1 <0>        -0.0813
     22 N6         -0.7847   -4.7752    8.4102 N.am      1 <0>        -0.6677
     23 C17        -2.0942   -4.4869    8.2735 C.2       1 <0>         0.5626
     24 O1         -2.4463   -3.6044    7.5152 O.2       1 <0>        -0.5067
     25 C18        -3.1021   -5.2439    9.0455 C.ar      1 <0>        -0.1383
     26 C19        -2.7007   -6.2541    9.9215 C.ar      1 <0>        -0.0538
     27 C20        -3.6463   -6.9562   10.6393 C.ar      1 <0>        -0.1227
     28 C21        -4.9904   -6.6613   10.4925 C.ar      1 <0>        -0.0419
     29 C22        -5.3950   -5.6618    9.6258 C.ar      1 <0>        -0.1882
     30 C23        -4.4590   -4.9479    8.9062 C.ar      1 <0>        -0.0066
     31 C24        -6.8609   -5.3479    9.4721 C.3       1 <0>         0.5099
     32 F1         -7.6080   -6.1921   10.3006 F         1 <0>        -0.1741
     33 F2         -7.0929   -4.0162    9.8325 F         1 <0>        -0.1727
     34 F3         -7.2426   -5.5439    8.1406 F         1 <0>        -0.1722
     35 H1          0.4239    1.9589    0.0404 H         1 <0>         0.0834
     36 H2         -1.1230    1.6797   -0.7948 H         1 <0>         0.0951
     37 H3         -1.0519    1.6412    0.9834 H         1 <0>         0.0920
     38 H4         -0.4657   -0.4946   -2.0785 H         1 <0>         0.2138
     39 H5          0.5372   -2.9665    1.1684 H         1 <0>         0.1774
     40 H6          0.0124    1.7881    2.3728 H         1 <0>         0.1640
     41 H7          0.5887    2.3503    7.2751 H         1 <0>         0.1854
     42 H8          0.9124    0.0003    8.0012 H         1 <0>         0.1699
     43 H9          2.7788   -2.4088    5.3568 H         1 <0>         0.1269
     44 H10         3.0898   -4.7533    6.0259 H         1 <0>         0.1378
     45 H11         1.4245   -5.8632    7.4545 H         1 <0>         0.1339
     46 H12        -0.8906   -2.2715    7.5727 H         1 <0>         0.1456
     47 H13        -0.4974   -5.4240    9.0716 H         1 <0>         0.4133
     48 H14        -1.6521   -6.4855   10.0367 H         1 <0>         0.1376
     49 H15        -3.3372   -7.7382   11.3170 H         1 <0>         0.1470
     50 H16        -5.7268   -7.2141   11.0569 H         1 <0>         0.1479
     51 H17        -4.7758   -4.1646    8.2335 H         1 <0>         0.1495
@<TRIPOS>BOND
     1    1    2 1
     2    1   35 1
     3    1   36 1
     4    1   37 1
     5    2    6 1
     6    2    3 1
     7    3    4 2
     8    3   38 1
     9    4    5 1
    10    5    6 2
    11    5   39 1
    12    6    7 1
    13    7   15 2
    14    7    8 1
    15    8    9 2
    16    8   40 1
    17    9   14 1
    18    9   10 1
    19   10   11 2
    20   11   12 1
    21   11   41 1
    22   12   13 2
    23   12   42 1
    24   13   14 1
    25   13   16 1
    26   14   15 1
    27   16   21 ar
    28   16   17 ar
    29   17   18 ar
    30   17   43 1
    31   18   19 ar
    32   18   44 1
    33   19   20 ar
    34   19   45 1
    35   20   21 ar
    36   20   22 1
    37   21   46 1
    38   22   23 am
    39   22   47 1
    40   23   24 2
    41   23   25 1
    42   25   30 ar
    43   25   26 ar
    44   26   27 ar
    45   26   48 1
    46   27   28 ar
    47   27   49 1
    48   28   29 ar
    49   28   50 1
    50   29   30 ar
    51   29   31 1
    52   30   51 1
    53   31   32 1
    54   31   33 1
    55   31   34 1
@<TRIPOS>MOLECULE
CHEMBL1088768__1
   52    56     0     0     0
SMALL
USER_CHARGES

@<TRIPOS>ATOM
      1 C1         -0.5137    1.4035    0.0658 C.3       1 <0>         0.0442
      2 N1         -0.2315   -0.0334    0.0234 N.pl3     1 <0>        -0.3972
      3 C2         -0.2434   -0.8216   -1.0735 C.cat     1 <0>         0.2988
      4 N2          0.0574   -2.0428   -0.7223 N.pl3     1 <0>        -0.4732
      5 C3          0.2721   -2.0888    0.5977 C.2       1 <0>         0.0427
      6 C4          0.1015   -0.8333    1.0928 C.2       1 <0>         0.1305
      7 C5          0.2430   -0.4112    2.5040 C.2       1 <0>         0.1435
      8 C6          0.1752    0.9049    2.9727 C.2       1 <0>        -0.2599
      9 C7          0.3557    0.8701    4.3473 C.2       1 <0>         0.2848
     10 N3          0.3815    1.8349    5.2772 N.2       1 <0>        -0.4653
     11 C8          0.5723    1.5539    6.5458 C.2       1 <0>         0.2030
     12 C9          0.7548    0.2310    6.9579 C.2       1 <0>        -0.1928
     13 C10         0.7315   -0.7766    6.0157 C.2       1 <0>         0.2446
     14 N4          0.5290   -0.4452    4.6982 N.pl3     1 <0>        -0.2875
     15 N5          0.4490   -1.2164    3.5334 N.2       1 <0>        -0.2690
     16 C11         0.9205   -2.1859    6.4166 C.ar      1 <0>        -0.0677
     17 C12         2.0454   -2.8925    5.9849 C.ar      1 <0>        -0.0855
     18 C13         2.2194   -4.2086    6.3607 C.ar      1 <0>        -0.0966
     19 C14         1.2830   -4.8327    7.1640 C.ar      1 <0>        -0.1139
     20 C15         0.1600   -4.1387    7.5985 C.ar      1 <0>         0.1472
     21 C16        -0.0210   -2.8139    7.2321 C.ar      1 <0>        -0.0803
     22 N6         -0.7847   -4.7752    8.4102 N.am      1 <0>        -0.6692
     23 C17        -2.0942   -4.4869    8.2735 C.2       1 <0>         0.5676
     24 O1         -2.4463   -3.6044    7.5152 O.2       1 <0>        -0.5121
     25 C18        -3.1021   -5.2439    9.0455 C.ar      1 <0>        -0.1438
     26 C19        -2.7007   -6.2541    9.9215 C.ar      1 <0>        -0.0532
     27 C20        -3.6463   -6.9562   10.6393 C.ar      1 <0>        -0.1211
     28 C21        -4.9904   -6.6613   10.4925 C.ar      1 <0>        -0.0384
     29 C22        -5.3950   -5.6618    9.6258 C.ar      1 <0>        -0.1876
     30 C23        -4.4590   -4.9479    8.9062 C.ar      1 <0>        -0.0062
     31 C24        -6.8609   -5.3479    9.4721 C.3       1 <0>         0.5098
     32 F1         -7.6080   -6.1921   10.3006 F         1 <0>        -0.1722
     33 F2         -7.0929   -4.0162    9.8325 F         1 <0>        -0.1724
     34 F3         -7.2426   -5.5439    8.1406 F         1 <0>        -0.1732
     35 H1          0.4239    1.9589    0.0404 H         1 <0>         0.1169
     36 H2         -1.1230    1.6797   -0.7948 H         1 <0>         0.1227
     37 H3         -1.0519    1.6412    0.9834 H         1 <0>         0.1213
     38 H4         -0.4657   -0.4946   -2.0785 H         1 <0>         0.2683
     39 H5          0.5372   -2.9665    1.1684 H         1 <0>         0.2292
     40 H6          0.0124    1.7881    2.3728 H         1 <0>         0.1701
     41 H7          0.5887    2.3503    7.2751 H         1 <0>         0.1947
     42 H8          0.9124    0.0003    8.0012 H         1 <0>         0.1791
     43 H9          2.7788   -2.4088    5.3568 H         1 <0>         0.1258
     44 H10         3.0898   -4.7533    6.0259 H         1 <0>         0.1393
     45 H11         1.4245   -5.8632    7.4545 H         1 <0>         0.1369
     46 H12        -0.8906   -2.2715    7.5727 H         1 <0>         0.1474
     47 H13        -0.4974   -5.4240    9.0716 H         1 <0>         0.4160
     48 H14        -1.6521   -6.4855   10.0367 H         1 <0>         0.1375
     49 H15        -3.3372   -7.7382   11.3170 H         1 <0>         0.1488
     50 H16        -5.7268   -7.2141   11.0569 H         1 <0>         0.1498
     51 H17        -4.7758   -4.1646    8.2335 H         1 <0>         0.1485
     52 H18         0.1161   -2.8001   -1.3255 H         1 <0>         0.4686
@<TRIPOS>BOND
     1    1    2 1
     2    1   35 1
     3    1   36 1
     4    1   37 1
     5    2    6 1
     6    2    3 1
     7    3    4 2
     8    3   38 1
     9    4    5 1
    10    4   52 1
    11    5    6 2
    12    5   39 1
    13    6    7 1
    14    7   15 2
    15    7    8 1
    16    8    9 2
    17    8   40 1
    18    9   14 1
    19    9   10 1
    20   10   11 2
    21   11   12 1
    22   11   41 1
    23   12   13 2
    24   12   42 1
    25   13   14 1
    26   13   16 1
    27   14   15 1
    28   16   21 ar
    29   16   17 ar
    30   17   18 ar
    31   17   43 1
    32   18   19 ar
    33   18   44 1
    34   19   20 ar
    35   19   45 1
    36   20   21 ar
    37   20   22 1
    38   21   46 1
    39   22   23 am
    40   22   47 1
    41   23   24 2
    42   23   25 1
    43   25   30 ar
    44   25   26 ar
    45   26   27 ar
    46   26   48 1
    47   27   28 ar
    48   27   49 1
    49   28   29 ar
    50   28   50 1
    51   29   30 ar
    52   29   31 1
    53   30   51 1
    54   31   32 1
    55   31   33 1
    56   31   34 1
@<TRIPOS>MOLECULE
CHEMBL1091689
   70    75     0     0     0
SMALL
USER_CHARGES

@<TRIPOS>ATOM
      1 C1         -0.0053    1.3819    0.0194 C.ar      1 <0>        -0.0993
      2 C2          1.1799    2.0889    0.0213 C.ar      1 <0>        -0.0879
      3 C3          2.3990    1.4080    0.0091 C.ar      1 <0>        -0.0606
      4 C4          2.4131    0.0127   -0.0050 C.ar      1 <0>        -0.0812
      5 C5          1.2172   -0.6877   -0.0068 C.ar      1 <0>         0.1495
      6 C6          0.0089   -0.0001    0.0054 C.ar      1 <0>        -0.1184
      7 N1          1.2259   -2.0863   -0.0214 N.am      1 <0>        -0.6701
      8 C7          2.1817   -2.7472   -0.7040 C.2       1 <0>         0.5682
      9 O1          3.0841   -2.1311   -1.2368 O.2       1 <0>        -0.5121
     10 C8          2.1328   -4.2211   -0.8047 C.ar      1 <0>        -0.1465
     11 C9          1.0947   -4.9311   -0.1989 C.ar      1 <0>        -0.0540
     12 C10         1.0547   -6.3064   -0.2971 C.ar      1 <0>        -0.1207
     13 C11         2.0406   -6.9823   -0.9943 C.ar      1 <0>        -0.0367
     14 C12         3.0724   -6.2848   -1.5966 C.ar      1 <0>        -0.1863
     15 C13         3.1211   -4.9085   -1.5109 C.ar      1 <0>        -0.0062
     16 C14         4.1420   -7.0293   -2.3534 C.3       1 <0>         0.5094
     17 F1          3.8768   -8.4021   -2.3062 F         1 <0>        -0.1710
     18 F2          4.1538   -6.6021   -3.6855 F         1 <0>        -0.1745
     19 F3          5.3883   -6.7747   -1.7710 F         1 <0>        -0.1709
     20 C15         3.6694    2.1622    0.0106 C.2       1 <0>         0.2321
     21 C16         4.5370    2.0746    1.0792 C.2       1 <0>        -0.1842
     22 C17         5.7310    2.8012    1.0492 C.2       1 <0>         0.2008
     23 N2          6.0230    3.5582    0.0170 N.2       1 <0>        -0.4578
     24 C18         5.1930    3.6564   -1.0306 C.2       1 <0>         0.2756
     25 N3          4.0111    2.9596   -1.0550 N.pl3     1 <0>        -0.2841
     26 N4          3.3654    3.2494   -2.2620 N.2       1 <0>        -0.2776
     27 C19         4.1182    4.0846   -2.9567 C.2       1 <0>         0.0925
     28 C20         5.2680    4.3718   -2.2167 C.2       1 <0>        -0.2266
     29 C21         3.7905    4.6360   -4.2952 C.ar      1 <0>         0.1655
     30 C22         4.6675    5.5119   -4.9451 C.ar      1 <0>        -0.1486
     31 C23         4.3288    6.0033   -6.1872 C.ar      1 <0>         0.1607
     32 N5          3.1939    5.6596   -6.7676 N.ar      1 <0>        -0.5018
     33 C24         2.3344    4.8340   -6.1899 C.ar      1 <0>         0.4456
     34 C25         2.6039    4.2902   -4.9401 C.ar      1 <0>        -0.1829
     35 N6          1.1524    4.5039   -6.8433 N.pl3     1 <0>        -0.7118
     36 C26         0.1963    3.5914   -6.2113 C.3       1 <0>         0.1118
     37 C27        -1.0091    3.3969   -7.1334 C.3       1 <0>        -0.1391
     38 C28        -2.0076    2.4440   -6.4734 C.3       1 <0>        -0.0713
     39 C29        -3.1949    2.2525   -7.3816 C.cat     1 <0>         0.3057
     40 N7         -4.2902    2.9951   -7.3842 N.pl3     1 <0>        -0.4826
     41 H1         -4.4651    3.7522   -6.8036 H         1 <0>         0.4660
     42 C30        -5.1218    2.5177   -8.3335 C.2       1 <0>         0.0238
     43 C31        -4.5096    1.4654   -8.9119 C.2       1 <0>         0.0239
     44 N8         -3.3104    1.3177   -8.3111 N.pl3     1 <0>        -0.4827
     45 H2         -0.9471    1.9103    0.0333 H         1 <0>         0.1366
     46 H3          1.1646    3.1688    0.0319 H         1 <0>         0.1252
     47 H4          3.3528   -0.5196   -0.0148 H         1 <0>         0.1488
     48 H5         -0.9219   -0.5478    0.0044 H         1 <0>         0.1350
     49 H6          0.5439   -2.5805    0.4598 H         1 <0>         0.4164
     50 H7          0.3248   -4.4049    0.3458 H         1 <0>         0.1369
     51 H8          0.2524   -6.8569    0.1714 H         1 <0>         0.1494
     52 H9          2.0047   -8.0591   -1.0682 H         1 <0>         0.1509
     53 H10         3.9245   -4.3648   -1.9856 H         1 <0>         0.1485
     54 H11         4.2968    1.4525    1.9288 H         1 <0>         0.1794
     55 H12         6.4174    2.7397    1.8807 H         1 <0>         0.1961
     56 H13         6.0748    5.0232   -2.5188 H         1 <0>         0.1752
     57 H14         5.5982    5.7996   -4.4788 H         1 <0>         0.1904
     58 H15         5.0015    6.6798   -6.6933 H         1 <0>         0.2173
     59 H16         1.9032    3.6134   -4.4738 H         1 <0>         0.1816
     60 H17         0.9609    4.8777   -7.7177 H         1 <0>         0.4200
     61 H18         0.6760    2.6291   -6.0326 H         1 <0>         0.0959
     62 H19        -0.1362    4.0133   -5.2629 H         1 <0>         0.0960
     63 H20        -1.4888    4.3592   -7.3121 H         1 <0>         0.0920
     64 H21        -0.6766    2.9750   -8.0819 H         1 <0>         0.0919
     65 H22        -1.5279    1.4817   -6.2947 H         1 <0>         0.1303
     66 H23        -2.3401    2.8660   -5.5249 H         1 <0>         0.1306
     67 H24        -6.0978    2.9068   -8.5835 H         1 <0>         0.2311
     68 H25        -4.9044    0.8554   -9.7109 H         1 <0>         0.2310
     69 H26         2.9833    6.0224   -7.6422 H         1 <0>         0.4438
     70 H27        -2.6481    0.6413   -8.5227 H         1 <0>         0.4662
@<TRIPOS>BOND
     1    1    6 ar
     2    1    2 ar
     3    1   45 1
     4    2    3 ar
     5    2   46 1
     6    3    4 ar
     7    3   20 1
     8    4    5 ar
     9    4   47 1
    10    5    6 ar
    11    5    7 1
    12    6   48 1
    13    7    8 am
    14    7   49 1
    15    8    9 2
    16    8   10 1
    17   10   15 ar
    18   10   11 ar
    19   11   12 ar
    20   11   50 1
    21   12   13 ar
    22   12   51 1
    23   13   14 ar
    24   13   52 1
    25   14   15 ar
    26   14   16 1
    27   15   53 1
    28   16   17 1
    29   16   18 1
    30   16   19 1
    31   20   25 1
    32   20   21 2
    33   21   22 1
    34   21   54 1
    35   22   23 2
    36   22   55 1
    37   23   24 1
    38   24   28 2
    39   24   25 1
    40   25   26 1
    41   26   27 2
    42   27   28 1
    43   27   29 1
    44   28   56 1
    45   29   34 ar
    46   29   30 ar
    47   30   31 ar
    48   30   57 1
    49   31   32 ar
    50   31   58 1
    51   32   33 ar
    52   32   69 1
    53   33   34 ar
    54   33   35 1
    55   34   59 1
    56   35   36 1
    57   35   60 1
    58   36   37 1
    59   36   61 1
    60   36   62 1
    61   37   38 1
    62   37   63 1
    63   37   64 1
    64   38   39 1
    65   38   65 1
    66   38   66 1
    67   39   44 2
    68   39   40 1
    69   40   41 1
    70   40   42 1
    71   42   43 2
    72   42   67 1
    73   43   44 1
    74   43   68 1
    75   44   70 1
@<TRIPOS>MOLECULE
CHEMBL1091689__1
   69    74     0     0     0
SMALL
USER_CHARGES

@<TRIPOS>ATOM
      1 C1         -0.0053    1.3819    0.0194 C.ar      1 <0>        -0.0971
      2 C2          1.1799    2.0889    0.0213 C.ar      1 <0>        -0.0858
      3 C3          2.3990    1.4080    0.0091 C.ar      1 <0>        -0.0637
      4 C4          2.4131    0.0127   -0.0050 C.ar      1 <0>        -0.0815
      5 C5          1.2172   -0.6877   -0.0068 C.ar      1 <0>         0.1468
      6 C6          0.0089   -0.0001    0.0054 C.ar      1 <0>        -0.1160
      7 N1          1.2259   -2.0863   -0.0214 N.am      1 <0>        -0.6689
      8 C7          2.1817   -2.7472   -0.7040 C.2       1 <0>         0.5669
      9 O1          3.0841   -2.1311   -1.2368 O.2       1 <0>        -0.5112
     10 C8          2.1328   -4.2211   -0.8047 C.ar      1 <0>        -0.1436
     11 C9          1.0947   -4.9311   -0.1989 C.ar      1 <0>        -0.0536
     12 C10         1.0547   -6.3064   -0.2971 C.ar      1 <0>        -0.1212
     13 C11         2.0406   -6.9823   -0.9943 C.ar      1 <0>        -0.0386
     14 C12         3.0724   -6.2848   -1.5966 C.ar      1 <0>        -0.1874
     15 C13         3.1211   -4.9085   -1.5109 C.ar      1 <0>        -0.0063
     16 C14         4.1420   -7.0293   -2.3534 C.3       1 <0>         0.5097
     17 F1          3.8768   -8.4021   -2.3062 F         1 <0>        -0.1723
     18 F2          4.1538   -6.6021   -3.6855 F         1 <0>        -0.1735
     19 F3          5.3883   -6.7747   -1.7710 F         1 <0>        -0.1719
     20 C15         3.6694    2.1622    0.0106 C.2       1 <0>         0.2379
     21 C16         4.5370    2.0746    1.0792 C.2       1 <0>        -0.1910
     22 C17         5.7310    2.8012    1.0492 C.2       1 <0>         0.1978
     23 N2          6.0230    3.5582    0.0170 N.2       1 <0>        -0.4602
     24 C18         5.1930    3.6564   -1.0306 C.2       1 <0>         0.2727
     25 N3          4.0111    2.9596   -1.0550 N.pl3     1 <0>        -0.2870
     26 N4          3.3654    3.2494   -2.2620 N.2       1 <0>        -0.2728
     27 C19         4.1182    4.0846   -2.9567 C.2       1 <0>         0.0999
     28 C20         5.2680    4.3718   -2.2167 C.2       1 <0>        -0.2294
     29 C21         3.7905    4.6360   -4.2952 C.ar      1 <0>         0.1565
     30 C22         4.6675    5.5119   -4.9451 C.ar      1 <0>        -0.1555
     31 C23         4.3288    6.0033   -6.1872 C.ar      1 <0>         0.1564
     32 N5          3.1939    5.6596   -6.7676 N.ar      1 <0>        -0.5060
     33 C24         2.3344    4.8340   -6.1899 C.ar      1 <0>         0.4501
     34 C25         2.6039    4.2902   -4.9401 C.ar      1 <0>        -0.1806
     35 N6          1.1524    4.5039   -6.8433 N.pl3     1 <0>        -0.6975
     36 C26         0.1963    3.5914   -6.2113 C.3       1 <0>         0.1078
     37 C27        -1.0091    3.3969   -7.1334 C.3       1 <0>        -0.1255
     38 C28        -2.0076    2.4440   -6.4734 C.3       1 <0>        -0.0257
     39 C29        -3.1949    2.2525   -7.3816 C.2       1 <0>         0.1939
     40 N7         -3.6684    1.0656   -7.8183 N.pl3     1 <0>        -0.5657
     41 H1         -3.3098    0.1896   -7.6062 H         1 <0>         0.4202
     42 C30        -4.7492    1.3295   -8.6158 C.2       1 <0>        -0.0463
     43 C31        -4.8988    2.6676   -8.6390 C.2       1 <0>        -0.0254
     44 N8         -3.9390    3.2058   -7.8719 N.2       1 <0>        -0.4844
     45 H2         -0.9471    1.9103    0.0333 H         1 <0>         0.1385
     46 H3          1.1646    3.1688    0.0319 H         1 <0>         0.1259
     47 H4          3.3528   -0.5196   -0.0148 H         1 <0>         0.1477
     48 H5         -0.9219   -0.5478    0.0044 H         1 <0>         0.1357
     49 H6          0.5439   -2.5805    0.4598 H         1 <0>         0.4156
     50 H7          0.3248   -4.4049    0.3458 H         1 <0>         0.1374
     51 H8          0.2524   -6.8569    0.1714 H         1 <0>         0.1486
     52 H9          2.0047   -8.0591   -1.0682 H         1 <0>         0.1497
     53 H10         3.9245   -4.3648   -1.9856 H         1 <0>         0.1487
     54 H11         4.2968    1.4525    1.9288 H         1 <0>         0.1773
     55 H12         6.4174    2.7397    1.8807 H         1 <0>         0.1933
     56 H13         6.0748    5.0232   -2.5188 H         1 <0>         0.1741
     57 H14         5.5982    5.7996   -4.4788 H         1 <0>         0.1863
     58 H15         5.0015    6.6798   -6.6933 H         1 <0>         0.2132
     59 H16         1.9032    3.6134   -4.4738 H         1 <0>         0.1822
     60 H17         0.9609    4.8777   -7.7177 H         1 <0>         0.4213
     61 H18         0.6760    2.6291   -6.0326 H         1 <0>         0.0894
     62 H19        -0.1362    4.0133   -5.2629 H         1 <0>         0.0925
     63 H20        -1.4888    4.3592   -7.3121 H         1 <0>         0.0934
     64 H21        -0.6766    2.9750   -8.0819 H         1 <0>         0.0783
     65 H22        -1.5279    1.4817   -6.2947 H         1 <0>         0.0840
     66 H23        -2.3401    2.8660   -5.5249 H         1 <0>         0.0974
     67 H24        -5.3636    0.6040   -9.1282 H         1 <0>         0.1812
     68 H25        -5.6604    3.2118   -9.1777 H         1 <0>         0.1739
     69 H26         2.9833    6.0224   -7.6422 H         1 <0>         0.4432
@<TRIPOS>BOND
     1    1    6 ar
     2    1    2 ar
     3    1   45 1
     4    2    3 ar
     5    2   46 1
     6    3    4 ar
     7    3   20 1
     8    4    5 ar
     9    4   47 1
    10    5    6 ar
    11    5    7 1
    12    6   48 1
    13    7    8 am
    14    7   49 1
    15    8    9 2
    16    8   10 1
    17   10   15 ar
    18   10   11 ar
    19   11   12 ar
    20   11   50 1
    21   12   13 ar
    22   12   51 1
    23   13   14 ar
    24   13   52 1
    25   14   15 ar
    26   14   16 1
    27   15   53 1
    28   16   17 1
    29   16   18 1
    30   16   19 1
    31   20   25 1
    32   20   21 2
    33   21   22 1
    34   21   54 1
    35   22   23 2
    36   22   55 1
    37   23   24 1
    38   24   28 2
    39   24   25 1
    40   25   26 1
    41   26   27 2
    42   27   28 1
    43   27   29 1
    44   28   56 1
    45   29   34 ar
    46   29   30 ar
    47   30   31 ar
    48   30   57 1
    49   31   32 ar
    50   31   58 1
    51   32   33 ar
    52   32   69 1
    53   33   34 ar
    54   33   35 1
    55   34   59 1
    56   35   36 1
    57   35   60 1
    58   36   37 1
    59   36   61 1
    60   36   62 1
    61   37   38 1
    62   37   63 1
    63   37   64 1
    64   38   39 1
    65   38   65 1
    66   38   66 1
    67   39   44 2
    68   39   40 1
    69   40   41 1
    70   40   42 1
    71   42   43 2
    72   42   67 1
    73   43   44 1
    74   43   68 1
@<TRIPOS>MOLECULE
CHEMBL1091689__2
   69    74     0     0     0
SMALL
USER_CHARGES

@<TRIPOS>ATOM
      1 C1         -0.0053    1.3819    0.0194 C.ar      1 <0>        -0.0999
      2 C2          1.1799    2.0889    0.0213 C.ar      1 <0>        -0.0851
      3 C3          2.3990    1.4080    0.0091 C.ar      1 <0>        -0.0520
      4 C4          2.4131    0.0127   -0.0050 C.ar      1 <0>        -0.0820
      5 C5          1.2172   -0.6877   -0.0068 C.ar      1 <0>         0.1443
      6 C6          0.0089   -0.0001    0.0054 C.ar      1 <0>        -0.1219
      7 N1          1.2259   -2.0863   -0.0214 N.am      1 <0>        -0.6687
      8 C7          2.1817   -2.7472   -0.7040 C.2       1 <0>         0.5637
      9 O1          3.0841   -2.1311   -1.2368 O.2       1 <0>        -0.5071
     10 C8          2.1328   -4.2211   -0.8047 C.ar      1 <0>        -0.1415
     11 C9          1.0947   -4.9311   -0.1989 C.ar      1 <0>        -0.0546
     12 C10         1.0547   -6.3064   -0.2971 C.ar      1 <0>        -0.1222
     13 C11         2.0406   -6.9823   -0.9943 C.ar      1 <0>        -0.0399
     14 C12         3.0724   -6.2848   -1.5966 C.ar      1 <0>        -0.1869
     15 C13         3.1211   -4.9085   -1.5109 C.ar      1 <0>        -0.0066
     16 C14         4.1420   -7.0293   -2.3534 C.3       1 <0>         0.5096
     17 F1          3.8768   -8.4021   -2.3062 F         1 <0>        -0.1728
     18 F2          4.1538   -6.6021   -3.6855 F         1 <0>        -0.1735
     19 F3          5.3883   -6.7747   -1.7710 F         1 <0>        -0.1712
     20 C15         3.6694    2.1622    0.0106 C.2       1 <0>         0.2352
     21 C16         4.5370    2.0746    1.0792 C.2       1 <0>        -0.2044
     22 C17         5.7310    2.8012    1.0492 C.2       1 <0>         0.1873
     23 N2          6.0230    3.5582    0.0170 N.2       1 <0>        -0.4599
     24 C18         5.1930    3.6564   -1.0306 C.2       1 <0>         0.2642
     25 N3          4.0111    2.9596   -1.0550 N.pl3     1 <0>        -0.2978
     26 N4          3.3654    3.2494   -2.2620 N.2       1 <0>        -0.2910
     27 C19         4.1182    4.0846   -2.9567 C.2       1 <0>         0.1428
     28 C20         5.2680    4.3718   -2.2167 C.2       1 <0>        -0.2397
     29 C21         3.7905    4.6360   -4.2952 C.ar      1 <0>         0.0696
     30 C22         4.6675    5.5119   -4.9451 C.ar      1 <0>        -0.1962
     31 C23         4.3288    6.0033   -6.1872 C.ar      1 <0>         0.1540
     32 N5          3.1939    5.6596   -6.7676 N.ar      1 <0>        -0.5349
     33 C24         2.3344    4.8340   -6.1899 C.ar      1 <0>         0.3970
     34 C25         2.6039    4.2902   -4.9401 C.ar      1 <0>        -0.2067
     35 N6          1.1524    4.5039   -6.8433 N.pl3     1 <0>        -0.7319
     36 C26         0.1963    3.5914   -6.2113 C.3       1 <0>         0.1297
     37 C27        -1.0091    3.3969   -7.1334 C.3       1 <0>        -0.1346
     38 C28        -2.0076    2.4440   -6.4734 C.3       1 <0>        -0.0739
     39 C29        -3.1948    2.2525   -7.3816 C.cat     1 <0>         0.3198
     40 N7         -4.2902    2.9951   -7.3842 N.pl3     1 <0>        -0.4857
     41 H1         -4.4651    3.7522   -6.8037 H         1 <0>         0.4657
     42 C30        -5.1218    2.5177   -8.3335 C.2       1 <0>         0.0182
     43 C31        -4.5096    1.4654   -8.9119 C.2       1 <0>         0.0182
     44 N8         -3.3104    1.3177   -8.3111 N.pl3     1 <0>        -0.4858
     45 H2         -0.9471    1.9103    0.0333 H         1 <0>         0.1351
     46 H3          1.1646    3.1688    0.0319 H         1 <0>         0.1260
     47 H4          3.3528   -0.5196   -0.0148 H         1 <0>         0.1472
     48 H5         -0.9219   -0.5478    0.0044 H         1 <0>         0.1324
     49 H6          0.5439   -2.5805    0.4598 H         1 <0>         0.4140
     50 H7          0.3248   -4.4049    0.3458 H         1 <0>         0.1369
     51 H8          0.2524   -6.8569    0.1714 H         1 <0>         0.1477
     52 H9          2.0047   -8.0591   -1.0682 H         1 <0>         0.1492
     53 H10         3.9245   -4.3648   -1.9856 H         1 <0>         0.1494
     54 H11         4.2968    1.4525    1.9288 H         1 <0>         0.1709
     55 H12         6.4174    2.7397    1.8807 H         1 <0>         0.1876
     56 H13         6.0748    5.0232   -2.5188 H         1 <0>         0.1686
     57 H14         5.5982    5.7996   -4.4788 H         1 <0>         0.1435
     58 H15         5.0015    6.6798   -6.6933 H         1 <0>         0.1662
     59 H16         1.9032    3.6134   -4.4738 H         1 <0>         0.1361
     60 H17         0.9609    4.8777   -7.7177 H         1 <0>         0.4063
     61 H18         0.6760    2.6291   -6.0326 H         1 <0>         0.0713
     62 H19        -0.1362    4.0133   -5.2629 H         1 <0>         0.0714
     63 H20        -1.4888    4.3592   -7.3121 H         1 <0>         0.0861
     64 H21        -0.6766    2.9750   -8.0819 H         1 <0>         0.0860
     65 H22        -1.5279    1.4817   -6.2947 H         1 <0>         0.1276
     66 H23        -2.3401    2.8659   -5.5250 H         1 <0>         0.1279
     67 H24        -6.0978    2.9067   -8.5835 H         1 <0>         0.2281
     68 H25        -4.9044    0.8554   -9.7109 H         1 <0>         0.2280
     69 H26        -2.6481    0.6413   -8.5227 H         1 <0>         0.4658
@<TRIPOS>BOND
     1    1    6 ar
     2    1    2 ar
     3    1   45 1
     4    2    3 ar
     5    2   46 1
     6    3    4 ar
     7    3   20 1
     8    4    5 ar
     9    4   47 1
    10    5    6 ar
    11    5    7 1
    12    6   48 1
    13    7    8 am
    14    7   49 1
    15    8    9 2
    16    8   10 1
    17   10   15 ar
    18   10   11 ar
    19   11   12 ar
    20   11   50 1
    21   12   13 ar
    22   12   51 1
    23   13   14 ar
    24   13   52 1
    25   14   15 ar
    26   14   16 1
    27   15   53 1
    28   16   17 1
    29   16   18 1
    30   16   19 1
    31   20   25 1
    32   20   21 2
    33   21   22 1
    34   21   54 1
    35   22   23 2
    36   22   55 1
    37   23   24 1
    38   24   28 2
    39   24   25 1
    40   25   26 1
    41   26   27 2
    42   27   28 1
    43   27   29 1
    44   28   56 1
    45   29   34 ar
    46   29   30 ar
    47   30   31 ar
    48   30   57 1
    49   31   32 ar
    50   31   58 1
    51   32   33 ar
    52   33   34 ar
    53   33   35 1
    54   34   59 1
    55   35   36 1
    56   35   60 1
    57   36   37 1
    58   36   61 1
    59   36   62 1
    60   37   38 1
    61   37   63 1
    62   37   64 1
    63   38   39 1
    64   38   65 1
    65   38   66 1
    66   39   44 2
    67   39   40 1
    68   40   41 1
    69   40   42 1
    70   42   43 2
    71   42   67 1
    72   43   44 1
    73   43   68 1
    74   44   69 1
@<TRIPOS>MOLECULE
CHEMBL1091688
   73    78     0     0     0
SMALL
USER_CHARGES

@<TRIPOS>ATOM
      1 C1         -0.0053    1.3819    0.0194 C.ar      1 <0>        -0.0974
      2 C2          1.1799    2.0889    0.0213 C.ar      1 <0>        -0.0865
      3 C3          2.3990    1.4080    0.0091 C.ar      1 <0>        -0.0641
      4 C4          2.4131    0.0127   -0.0050 C.ar      1 <0>        -0.0813
      5 C5          1.2172   -0.6877   -0.0068 C.ar      1 <0>         0.1478
      6 C6          0.0089   -0.0001    0.0054 C.ar      1 <0>        -0.1157
      7 N1          1.2259   -2.0863   -0.0214 N.am      1 <0>        -0.6691
      8 C7          2.1817   -2.7472   -0.7040 C.2       1 <0>         0.5671
      9 O1          3.0841   -2.1311   -1.2368 O.2       1 <0>        -0.5110
     10 C8          2.1328   -4.2211   -0.8047 C.ar      1 <0>        -0.1436
     11 C9          1.0947   -4.9311   -0.1989 C.ar      1 <0>        -0.0534
     12 C10         1.0547   -6.3064   -0.2971 C.ar      1 <0>        -0.1213
     13 C11         2.0406   -6.9823   -0.9943 C.ar      1 <0>        -0.0384
     14 C12         3.0724   -6.2848   -1.5966 C.ar      1 <0>        -0.1873
     15 C13         3.1211   -4.9085   -1.5109 C.ar      1 <0>        -0.0060
     16 C14         4.1420   -7.0293   -2.3534 C.3       1 <0>         0.5097
     17 F1          3.8768   -8.4021   -2.3062 F         1 <0>        -0.1723
     18 F2          4.1538   -6.6021   -3.6855 F         1 <0>        -0.1730
     19 F3          5.3883   -6.7747   -1.7710 F         1 <0>        -0.1722
     20 C15         3.6694    2.1622    0.0106 C.2       1 <0>         0.2383
     21 C16         4.5370    2.0746    1.0792 C.2       1 <0>        -0.1909
     22 C17         5.7310    2.8012    1.0492 C.2       1 <0>         0.1980
     23 N2          6.0230    3.5582    0.0170 N.2       1 <0>        -0.4604
     24 C18         5.1930    3.6564   -1.0306 C.2       1 <0>         0.2729
     25 N3          4.0111    2.9596   -1.0550 N.pl3     1 <0>        -0.2867
     26 N4          3.3654    3.2494   -2.2620 N.2       1 <0>        -0.2725
     27 C19         4.1182    4.0846   -2.9567 C.2       1 <0>         0.0992
     28 C20         5.2680    4.3718   -2.2167 C.2       1 <0>        -0.2294
     29 C21         3.7905    4.6360   -4.2952 C.ar      1 <0>         0.1574
     30 C22         4.6675    5.5119   -4.9451 C.ar      1 <0>        -0.1547
     31 C23         4.3288    6.0033   -6.1872 C.ar      1 <0>         0.1562
     32 N5          3.1939    5.6596   -6.7676 N.ar      1 <0>        -0.5058
     33 C24         2.3344    4.8340   -6.1899 C.ar      1 <0>         0.4498
     34 C25         2.6039    4.2902   -4.9401 C.ar      1 <0>        -0.1803
     35 N6          1.1524    4.5039   -6.8433 N.pl3     1 <0>        -0.6984
     36 C26         0.1963    3.5914   -6.2113 C.3       1 <0>         0.1117
     37 C27        -1.0091    3.3969   -7.1334 C.3       1 <0>        -0.1530
     38 C28        -2.0076    2.4440   -6.4734 C.3       1 <0>         0.1306
     39 N7         -3.1618    2.2578   -7.3563 N.am      1 <0>        -0.6244
     40 C29        -4.3646    3.0984   -7.3353 C.3       1 <0>         0.1007
     41 C30        -5.0822    2.8247   -8.6756 C.3       1 <0>        -0.1335
     42 C31        -4.5751    1.4053   -9.0206 C.3       1 <0>        -0.1578
     43 C32        -3.2527    1.2987   -8.2937 C.2       1 <0>         0.5174
     44 O2         -2.3998    0.4671   -8.5216 O.2       1 <0>        -0.5261
     45 H1         -0.9471    1.9103    0.0333 H         1 <0>         0.1380
     46 H2          1.1646    3.1688    0.0319 H         1 <0>         0.1254
     47 H3          3.3528   -0.5196   -0.0148 H         1 <0>         0.1478
     48 H4         -0.9219   -0.5478    0.0044 H         1 <0>         0.1359
     49 H5          0.5439   -2.5805    0.4598 H         1 <0>         0.4157
     50 H6          0.3248   -4.4049    0.3458 H         1 <0>         0.1373
     51 H7          0.2524   -6.8569    0.1714 H         1 <0>         0.1485
     52 H8          2.0047   -8.0591   -1.0682 H         1 <0>         0.1497
     53 H9          3.9245   -4.3648   -1.9856 H         1 <0>         0.1487
     54 H10         4.2968    1.4525    1.9288 H         1 <0>         0.1775
     55 H11         6.4174    2.7397    1.8807 H         1 <0>         0.1934
     56 H12         6.0748    5.0232   -2.5188 H         1 <0>         0.1741
     57 H13         5.5982    5.7996   -4.4788 H         1 <0>         0.1867
     58 H14         5.0015    6.6798   -6.6933 H         1 <0>         0.2135
     59 H15         1.9032    3.6134   -4.4738 H         1 <0>         0.1823
     60 H16         0.9609    4.8777   -7.7177 H         1 <0>         0.4202
     61 H17         0.6760    2.6291   -6.0326 H         1 <0>         0.0921
     62 H18        -0.1362    4.0133   -5.2629 H         1 <0>         0.0918
     63 H19        -1.4888    4.3592   -7.3121 H         1 <0>         0.0809
     64 H20        -0.6766    2.9750   -8.0819 H         1 <0>         0.0826
     65 H21        -1.5279    1.4817   -6.2947 H         1 <0>         0.0894
     66 H22        -2.3401    2.8660   -5.5249 H         1 <0>         0.0870
     67 H23        -5.0061    2.8181   -6.4998 H         1 <0>         0.0768
     68 H24        -4.0884    4.1504   -7.2633 H         1 <0>         0.0785
     69 H25        -6.1646    2.8317   -8.5472 H         1 <0>         0.0959
     70 H26        -4.7765    3.5436   -9.4357 H         1 <0>         0.0832
     71 H27        -5.2751    0.6518   -8.6596 H         1 <0>         0.1092
     72 H28        -4.4255    1.3044  -10.0956 H         1 <0>         0.1051
     73 H29         2.9833    6.0224   -7.6422 H         1 <0>         0.4428
@<TRIPOS>BOND
     1    1    6 ar
     2    1    2 ar
     3    1   45 1
     4    2    3 ar
     5    2   46 1
     6    3    4 ar
     7    3   20 1
     8    4    5 ar
     9    4   47 1
    10    5    6 ar
    11    5    7 1
    12    6   48 1
    13    7    8 am
    14    7   49 1
    15    8    9 2
    16    8   10 1
    17   10   15 ar
    18   10   11 ar
    19   11   12 ar
    20   11   50 1
    21   12   13 ar
    22   12   51 1
    23   13   14 ar
    24   13   52 1
    25   14   15 ar
    26   14   16 1
    27   15   53 1
    28   16   17 1
    29   16   18 1
    30   16   19 1
    31   20   25 1
    32   20   21 2
    33   21   22 1
    34   21   54 1
    35   22   23 2
    36   22   55 1
    37   23   24 1
    38   24   28 2
    39   24   25 1
    40   25   26 1
    41   26   27 2
    42   27   28 1
    43   27   29 1
    44   28   56 1
    45   29   34 ar
    46   29   30 ar
    47   30   31 ar
    48   30   57 1
    49   31   32 ar
    50   31   58 1
    51   32   33 ar
    52   32   73 1
    53   33   34 ar
    54   33   35 1
    55   34   59 1
    56   35   36 1
    57   35   60 1
    58   36   37 1
    59   36   61 1
    60   36   62 1
    61   37   38 1
    62   37   63 1
    63   37   64 1
    64   38   39 1
    65   38   65 1
    66   38   66 1
    67   39   43 am
    68   39   40 1
    69   40   41 1
    70   40   67 1
    71   40   68 1
    72   41   42 1
    73   41   69 1
    74   41   70 1
    75   42   43 1
    76   42   71 1
    77   42   72 1
    78   43   44 2
@<TRIPOS>MOLECULE
CHEMBL1091688__1
   72    77     0     0     0
SMALL
USER_CHARGES

@<TRIPOS>ATOM
      1 C1         -0.0053    1.3819    0.0194 C.ar      1 <0>        -0.0979
      2 C2          1.1799    2.0889    0.0213 C.ar      1 <0>        -0.0837
      3 C3          2.3990    1.4080    0.0091 C.ar      1 <0>        -0.0556
      4 C4          2.4131    0.0127   -0.0050 C.ar      1 <0>        -0.0821
      5 C5          1.2172   -0.6877   -0.0068 C.ar      1 <0>         0.1426
      6 C6          0.0089   -0.0001    0.0054 C.ar      1 <0>        -0.1193
      7 N1          1.2259   -2.0863   -0.0214 N.am      1 <0>        -0.6677
      8 C7          2.1817   -2.7472   -0.7040 C.2       1 <0>         0.5625
      9 O1          3.0841   -2.1311   -1.2368 O.2       1 <0>        -0.5061
     10 C8          2.1328   -4.2211   -0.8047 C.ar      1 <0>        -0.1387
     11 C9          1.0947   -4.9311   -0.1989 C.ar      1 <0>        -0.0540
     12 C10         1.0547   -6.3064   -0.2971 C.ar      1 <0>        -0.1228
     13 C11         2.0406   -6.9823   -0.9943 C.ar      1 <0>        -0.0416
     14 C12         3.0724   -6.2848   -1.5966 C.ar      1 <0>        -0.1879
     15 C13         3.1211   -4.9085   -1.5109 C.ar      1 <0>        -0.0063
     16 C14         4.1420   -7.0293   -2.3534 C.3       1 <0>         0.5099
     17 F1          3.8768   -8.4021   -2.3062 F         1 <0>        -0.1741
     18 F2          4.1538   -6.6021   -3.6855 F         1 <0>        -0.1721
     19 F3          5.3883   -6.7747   -1.7710 F         1 <0>        -0.1725
     20 C15         3.6694    2.1622    0.0106 C.2       1 <0>         0.2412
     21 C16         4.5370    2.0746    1.0792 C.2       1 <0>        -0.2106
     22 C17         5.7310    2.8012    1.0492 C.2       1 <0>         0.1845
     23 N2          6.0230    3.5582    0.0170 N.2       1 <0>        -0.4622
     24 C18         5.1930    3.6564   -1.0306 C.2       1 <0>         0.2606
     25 N3          4.0111    2.9596   -1.0550 N.pl3     1 <0>        -0.2994
     26 N4          3.3654    3.2494   -2.2620 N.2       1 <0>        -0.2858
     27 C19         4.1182    4.0846   -2.9567 C.2       1 <0>         0.1483
     28 C20         5.2680    4.3718   -2.2167 C.2       1 <0>        -0.2402
     29 C21         3.7905    4.6360   -4.2952 C.ar      1 <0>         0.0652
     30 C22         4.6675    5.5119   -4.9451 C.ar      1 <0>        -0.2056
     31 C23         4.3288    6.0033   -6.1872 C.ar      1 <0>         0.1524
     32 N5          3.1939    5.6596   -6.7676 N.ar      1 <0>        -0.5383
     33 C24         2.3344    4.8340   -6.1899 C.ar      1 <0>         0.4038
     34 C25         2.6039    4.2902   -4.9401 C.ar      1 <0>        -0.2063
     35 N6          1.1524    4.5039   -6.8433 N.pl3     1 <0>        -0.7245
     36 C26         0.1963    3.5914   -6.2113 C.3       1 <0>         0.1310
     37 C27        -1.0091    3.3969   -7.1334 C.3       1 <0>        -0.1475
     38 C28        -2.0076    2.4440   -6.4734 C.3       1 <0>         0.1302
     39 N7         -3.1618    2.2578   -7.3563 N.am      1 <0>        -0.6215
     40 C29        -4.3646    3.0984   -7.3353 C.3       1 <0>         0.1004
     41 C30        -5.0822    2.8247   -8.6756 C.3       1 <0>        -0.1330
     42 C31        -4.5750    1.4053   -9.0206 C.3       1 <0>        -0.1566
     43 C32        -3.2527    1.2987   -8.2937 C.2       1 <0>         0.5149
     44 O2         -2.3997    0.4671   -8.5216 O.2       1 <0>        -0.5282
     45 H1         -0.9471    1.9103    0.0333 H         1 <0>         0.1366
     46 H2          1.1646    3.1688    0.0319 H         1 <0>         0.1261
     47 H3          3.3528   -0.5196   -0.0148 H         1 <0>         0.1462
     48 H4         -0.9219   -0.5478    0.0044 H         1 <0>         0.1333
     49 H5          0.5439   -2.5805    0.4598 H         1 <0>         0.4132
     50 H6          0.3248   -4.4049    0.3458 H         1 <0>         0.1373
     51 H7          0.2524   -6.8569    0.1714 H         1 <0>         0.1469
     52 H8          2.0047   -8.0591   -1.0682 H         1 <0>         0.1480
     53 H9          3.9245   -4.3648   -1.9856 H         1 <0>         0.1496
     54 H10         4.2968    1.4525    1.9288 H         1 <0>         0.1691
     55 H11         6.4174    2.7397    1.8807 H         1 <0>         0.1851
     56 H12         6.0748    5.0232   -2.5188 H         1 <0>         0.1677
     57 H13         5.5982    5.7996   -4.4788 H         1 <0>         0.1396
     58 H14         5.0015    6.6798   -6.6933 H         1 <0>         0.1625
     59 H15         1.9032    3.6134   -4.4738 H         1 <0>         0.1374
     60 H16         0.9609    4.8777   -7.7177 H         1 <0>         0.4062
     61 H17         0.6760    2.6291   -6.0326 H         1 <0>         0.0665
     62 H18        -0.1362    4.0133   -5.2629 H         1 <0>         0.0659
     63 H19        -1.4888    4.3592   -7.3121 H         1 <0>         0.0743
     64 H20        -0.6766    2.9750   -8.0819 H         1 <0>         0.0762
     65 H21        -1.5279    1.4817   -6.2947 H         1 <0>         0.0864
     66 H22        -2.3401    2.8659   -5.5250 H         1 <0>         0.0835
     67 H23        -5.0061    2.8181   -6.4999 H         1 <0>         0.0738
     68 H24        -4.0884    4.1504   -7.2633 H         1 <0>         0.0795
     69 H25        -6.1646    2.8317   -8.5472 H         1 <0>         0.0925
     70 H26        -4.7765    3.5436   -9.4358 H         1 <0>         0.0831
     71 H27        -5.2751    0.6518   -8.6596 H         1 <0>         0.1055
     72 H28        -4.4255    1.3044  -10.0956 H         1 <0>         0.1027
@<TRIPOS>BOND
     1    1    6 ar
     2    1    2 ar
     3    1   45 1
     4    2    3 ar
     5    2   46 1
     6    3    4 ar
     7    3   20 1
     8    4    5 ar
     9    4   47 1
    10    5    6 ar
    11    5    7 1
    12    6   48 1
    13    7    8 am
    14    7   49 1
    15    8    9 2
    16    8   10 1
    17   10   15 ar
    18   10   11 ar
    19   11   12 ar
    20   11   50 1
    21   12   13 ar
    22   12   51 1
    23   13   14 ar
    24   13   52 1
    25   14   15 ar
    26   14   16 1
    27   15   53 1
    28   16   17 1
    29   16   18 1
    30   16   19 1
    31   20   25 1
    32   20   21 2
    33   21   22 1
    34   21   54 1
    35   22   23 2
    36   22   55 1
    37   23   24 1
    38   24   28 2
    39   24   25 1
    40   25   26 1
    41   26   27 2
    42   27   28 1
    43   27   29 1
    44   28   56 1
    45   29   34 ar
    46   29   30 ar
    47   30   31 ar
    48   30   57 1
    49   31   32 ar
    50   31   58 1
    51   32   33 ar
    52   33   34 ar
    53   33   35 1
    54   34   59 1
    55   35   36 1
    56   35   60 1
    57   36   37 1
    58   36   61 1
    59   36   62 1
    60   37   38 1
    61   37   63 1
    62   37   64 1
    63   38   39 1
    64   38   65 1
    65   38   66 1
    66   39   43 am
    67   39   40 1
    68   40   41 1
    69   40   67 1
    70   40   68 1
    71   41   42 1
    72   41   69 1
    73   41   70 1
    74   42   43 1
    75   42   71 1
    76   42   72 1
    77   43   44 2
@<TRIPOS>MOLECULE
CHEMBL576985
   62    67     0     0     0
SMALL
USER_CHARGES

@<TRIPOS>ATOM
      1 C1         -0.8779    1.4212    0.0720 C.3       1 <0>        -0.1275
      2 C2         -0.6180   -0.0631    0.0466 C.ar      1 <0>        -0.0371
      3 C3         -0.6608   -0.7482   -1.1616 C.ar      1 <0>        -0.1242
      4 C4         -0.4306   -2.0913   -1.2207 C.ar      1 <0>        -0.0762
      5 C5         -0.1441   -2.8043   -0.0490 C.ar      1 <0>        -0.1395
      6 C6         -0.0961   -2.1214    1.1911 C.ar      1 <0>         0.0308
      7 C7         -0.3331   -0.7297    1.2275 C.ar      1 <0>        -0.0535
      8 C8         -0.2832    0.0065    2.5114 C.ar      1 <0>        -0.0657
      9 C9          0.9325    0.1114    3.2080 C.ar      1 <0>        -0.0506
     10 C10         1.0059    0.7809    4.3884 C.ar      1 <0>        -0.1185
     11 C11        -0.1441    1.3798    4.9269 C.ar      1 <0>         0.2165
     12 C12        -1.3775    1.2804    4.2312 C.ar      1 <0>        -0.2135
     13 C13        -1.4340    0.5912    3.0135 C.ar      1 <0>        -0.0389
     14 C14        -2.5146    1.8911    4.7942 C.ar      1 <0>         0.2428
     15 N1         -2.3838    2.5265    5.9397 N.ar      1 <0>        -0.5581
     16 C15        -1.2106    2.6000    6.5654 C.ar      1 <0>         0.5686
     17 N2         -0.1126    2.0480    6.0863 N.ar      1 <0>        -0.5737
     18 N3         -1.1405    3.2832    7.7660 N.pl3     1 <0>        -0.7007
     19 C16        -2.3421    3.9078    8.3246 C.3       1 <0>         0.1039
     20 C17         0.1939   -2.8612    2.3501 C.ar      1 <0>        -0.2093
     21 C18         0.4166   -4.2002    2.2374 C.ar      1 <0>         0.1330
     22 N4          0.3680   -4.8235    1.0681 N.ar      1 <0>        -0.5394
     23 C19         0.1015   -4.1957   -0.0619 C.ar      1 <0>         0.4283
     24 N5          0.0627   -4.8979   -1.2552 N.pl3     1 <0>        -0.6538
     25 C20         0.1877   -6.2898   -1.2514 C.ar      1 <0>         0.1983
     26 C21        -0.3943   -7.0347   -0.2324 C.ar      1 <0>        -0.1267
     27 C22        -0.2693   -8.4115   -0.2317 C.ar      1 <0>        -0.0422
     28 C23         0.4304   -9.0404   -1.2380 C.ar      1 <0>        -0.1478
     29 C24         1.0180   -8.3097   -2.2638 C.ar      1 <0>         0.1631
     30 C25         0.8867   -6.9235   -2.2668 C.ar      1 <0>        -0.1710
     31 N6          1.6655   -9.1654   -3.1558 N.am      1 <0>        -0.6605
     32 C26         1.5538  -10.4550   -2.7958 C.2       1 <0>         0.5358
     33 O1          2.0161  -11.4097   -3.3839 O.2       1 <0>        -0.4958
     34 C27         0.7422  -10.4927   -1.5184 C.3       1 <0>        -0.0516
     35 C28        -0.5484  -11.2876   -1.7266 C.3       1 <0>        -0.1266
     36 C29         1.5656  -11.0941   -0.3777 C.3       1 <0>        -0.1267
     37 H1          0.0617    1.9569   -0.0632 H         1 <0>         0.0768
     38 H2         -1.5648    1.6836   -0.7326 H         1 <0>         0.0718
     39 H3         -1.3185    1.6965    1.0302 H         1 <0>         0.0748
     40 H4         -0.8808   -0.2074   -2.0702 H         1 <0>         0.1302
     41 H5         -0.4694   -2.6050   -2.1700 H         1 <0>         0.1250
     42 H6          1.8211   -0.3469    2.7998 H         1 <0>         0.1323
     43 H7          1.9479    0.8518    4.9119 H         1 <0>         0.1391
     44 H8         -2.3661    0.5130    2.4735 H         1 <0>         0.1355
     45 H9         -3.4722    1.8396    4.2974 H         1 <0>         0.1779
     46 H10        -0.2957    3.3487    8.2381 H         1 <0>         0.4167
     47 H11        -2.0933    4.3959    9.2669 H         1 <0>         0.0773
     48 H12        -2.7268    4.6477    7.6227 H         1 <0>         0.0602
     49 H13        -3.1004    3.1446    8.4998 H         1 <0>         0.0603
     50 H14         0.2398   -2.3762    3.3140 H         1 <0>         0.1356
     51 H15         0.6397   -4.7711    3.1266 H         1 <0>         0.1553
     52 H16        -0.0511   -4.4235   -2.0936 H         1 <0>         0.4183
     53 H17        -0.9419   -6.5398    0.5560 H         1 <0>         0.1391
     54 H18        -0.7200   -8.9941    0.5582 H         1 <0>         0.1315
     55 H19         1.3338   -6.3411   -3.0588 H         1 <0>         0.1276
     56 H20         2.1414   -8.8638   -3.9454 H         1 <0>         0.4126
     57 H21        -1.0976  -10.8738   -2.5724 H         1 <0>         0.0601
     58 H22        -0.3043  -12.3308   -1.9273 H         1 <0>         0.0708
     59 H23        -1.1629  -11.2245   -0.8285 H         1 <0>         0.0739
     60 H24         1.0015  -11.0264    0.5525 H         1 <0>         0.0741
     61 H25         1.7806  -12.1399   -0.5969 H         1 <0>         0.0706
     62 H26         2.5013  -10.5444   -0.2760 H         1 <0>         0.0604
@<TRIPOS>BOND
     1    1    2 1
     2    1   37 1
     3    1   38 1
     4    1   39 1
     5    2    7 ar
     6    2    3 ar
     7    3    4 ar
     8    3   40 1
     9    4    5 ar
    10    4   41 1
    11    5   23 ar
    12    5    6 ar
    13    6    7 ar
    14    6   20 ar
    15    7    8 1
    16    8   13 ar
    17    8    9 ar
    18    9   10 ar
    19    9   42 1
    20   10   11 ar
    21   10   43 1
    22   11   17 ar
    23   11   12 ar
    24   12   13 ar
    25   12   14 ar
    26   13   44 1
    27   14   15 ar
    28   14   45 1
    29   15   16 ar
    30   16   17 ar
    31   16   18 1
    32   18   19 1
    33   18   46 1
    34   19   47 1
    35   19   48 1
    36   19   49 1
    37   20   21 ar
    38   20   50 1
    39   21   22 ar
    40   21   51 1
    41   22   23 ar
    42   23   24 1
    43   24   25 1
    44   24   52 1
    45   25   30 ar
    46   25   26 ar
    47   26   27 ar
    48   26   53 1
    49   27   28 ar
    50   27   54 1
    51   28   34 1
    52   28   29 ar
    53   29   30 ar
    54   29   31 1
    55   30   55 1
    56   31   32 am
    57   31   56 1
    58   32   33 2
    59   32   34 1
    60   34   35 1
    61   34   36 1
    62   35   57 1
    63   35   58 1
    64   35   59 1
    65   36   60 1
    66   36   61 1
    67   36   62 1
@<TRIPOS>MOLECULE
CHEMBL576985__1
   63    68     0     0     0
SMALL
USER_CHARGES

@<TRIPOS>ATOM
      1 C1         -1.4788    1.3608   -0.2411 C.3       1 <0>        -0.1416
      2 C2         -1.2037   -0.1204   -0.2039 C.ar      1 <0>         0.0042
      3 C3         -0.7134   -0.7575   -1.3374 C.ar      1 <0>        -0.0941
      4 C4         -0.4534   -2.0965   -1.3385 C.ar      1 <0>        -0.0656
      5 C5         -0.6803   -2.8542   -0.1819 C.ar      1 <0>        -0.1289
      6 C6         -1.1794   -2.2205    0.9825 C.ar      1 <0>         0.0410
      7 C7         -1.4367   -0.8321    0.9619 C.ar      1 <0>        -0.0309
      8 C8         -1.9539   -0.1470    2.1685 C.ar      1 <0>        -0.1044
      9 C9         -1.1540   -0.0657    3.3207 C.ar      1 <0>        -0.0582
     10 C10        -1.6045    0.5569    4.4416 C.ar      1 <0>        -0.1110
     11 C11        -2.8859    1.1305    4.4575 C.ar      1 <0>         0.2266
     12 C12        -3.7023    1.0546    3.2987 C.ar      1 <0>        -0.2224
     13 C13        -3.2203    0.4138    2.1507 C.ar      1 <0>        -0.0201
     14 C14        -4.9827    1.6389    3.3427 C.ar      1 <0>         0.2487
     15 N1         -5.3657    2.2291    4.4554 N.ar      1 <0>        -0.5530
     16 C15        -4.5734    2.2817    5.5243 C.ar      1 <0>         0.5782
     17 N2         -3.3653    1.7525    5.5415 N.ar      1 <0>        -0.5758
     18 N3         -5.0357    2.9172    6.6625 N.pl3     1 <0>        -0.6927
     19 C16        -6.3729    3.5155    6.6754 C.3       1 <0>         0.0991
     20 C17        -1.3971   -3.0045    2.1282 C.ar      1 <0>        -0.1181
     21 C18        -1.1212   -4.3374    2.0756 C.ar      1 <0>         0.0820
     22 N4         -0.6540   -4.9141    0.9770 N.ar      1 <0>        -0.5116
     23 C19        -0.4252   -4.2432   -0.1364 C.ar      1 <0>         0.4984
     24 N5          0.0627   -4.8979   -1.2552 N.pl3     1 <0>        -0.6253
     25 C20         0.1877   -6.2898   -1.2514 C.ar      1 <0>         0.1330
     26 C21        -0.8144   -7.0737   -0.6918 C.ar      1 <0>        -0.1929
     27 C22        -0.6881   -8.4504   -0.6899 C.ar      1 <0>        -0.0212
     28 C23         0.4281   -9.0406   -1.2408 C.ar      1 <0>        -0.1214
     29 C24         1.4387   -8.2707   -1.8041 C.ar      1 <0>         0.1928
     30 C25         1.3079   -6.8845   -1.8107 C.ar      1 <0>        -0.1434
     31 N6          2.4558   -9.0921   -2.2921 N.am      1 <0>        -0.6607
     32 C26         2.1968  -10.3954   -2.0931 C.2       1 <0>         0.5350
     33 O1          2.9032  -11.3274   -2.4145 O.2       1 <0>        -0.4678
     34 C27         0.8575  -10.4820   -1.3927 C.3       1 <0>        -0.0562
     35 C28        -0.1474  -11.2530   -2.2511 C.3       1 <0>        -0.1317
     36 C29         1.0114  -11.1428   -0.0214 C.3       1 <0>        -0.1311
     37 H1         -0.5821    1.9045    0.0564 H         1 <0>         0.0931
     38 H2         -1.7618    1.6526   -1.2525 H         1 <0>         0.0848
     39 H3         -2.2914    1.5968    0.4460 H         1 <0>         0.0855
     40 H4         -0.5353   -0.1820   -2.2338 H         1 <0>         0.1525
     41 H5         -0.0734   -2.5724   -2.2304 H         1 <0>         0.1423
     42 H6         -0.1673   -0.5047    3.3157 H         1 <0>         0.1325
     43 H7         -0.9775    0.6101    5.3194 H         1 <0>         0.1432
     44 H8         -3.8311    0.3540    1.2620 H         1 <0>         0.1380
     45 H9         -5.6356    1.6040    2.4831 H         1 <0>         0.1806
     46 H10        -4.4745    2.9667    7.4521 H         1 <0>         0.4196
     47 H11        -6.5596    3.9668    7.6499 H         1 <0>         0.0820
     48 H12        -6.4358    4.2813    5.9023 H         1 <0>         0.0639
     49 H13        -7.1182    2.7435    6.4837 H         1 <0>         0.0637
     50 H14        -1.7765   -2.5578    3.0353 H         1 <0>         0.1775
     51 H15        -1.2877   -4.9421    2.9548 H         1 <0>         0.2015
     52 H16         0.3178   -4.3902   -2.0415 H         1 <0>         0.4443
     53 H17        -1.6884   -6.6090   -0.2597 H         1 <0>         0.1370
     54 H18        -1.4644   -9.0632   -0.2562 H         1 <0>         0.1501
     55 H19         2.0822   -6.2717   -2.2481 H         1 <0>         0.1452
     56 H20         3.2576   -8.7602   -2.7255 H         1 <0>         0.4206
     57 H21        -0.2079  -10.7958   -3.2387 H         1 <0>         0.0636
     58 H22         0.1781  -12.2886   -2.3495 H         1 <0>         0.0800
     59 H23        -1.1282  -11.2240   -1.7765 H         1 <0>         0.0781
     60 H24         0.0581  -11.1112    0.5062 H         1 <0>         0.0778
     61 H25         1.3209  -12.1799   -0.1506 H         1 <0>         0.0802
     62 H26         1.7648  -10.6081    0.5570 H         1 <0>         0.0627
     63 H27        -0.4731   -5.8670    0.9921 H         1 <0>         0.4405
@<TRIPOS>BOND
     1    1    2 1
     2    1   37 1
     3    1   38 1
     4    1   39 1
     5    2    7 ar
     6    2    3 ar
     7    3    4 ar
     8    3   40 1
     9    4    5 ar
    10    4   41 1
    11    5   23 ar
    12    5    6 ar
    13    6    7 ar
    14    6   20 ar
    15    7    8 1
    16    8   13 ar
    17    8    9 ar
    18    9   10 ar
    19    9   42 1
    20   10   11 ar
    21   10   43 1
    22   11   17 ar
    23   11   12 ar
    24   12   13 ar
    25   12   14 ar
    26   13   44 1
    27   14   15 ar
    28   14   45 1
    29   15   16 ar
    30   16   17 ar
    31   16   18 1
    32   18   19 1
    33   18   46 1
    34   19   47 1
    35   19   48 1
    36   19   49 1
    37   20   21 ar
    38   20   50 1
    39   21   22 ar
    40   21   51 1
    41   22   23 ar
    42   22   63 1
    43   23   24 1
    44   24   25 1
    45   24   52 1
    46   25   30 ar
    47   25   26 ar
    48   26   27 ar
    49   26   53 1
    50   27   28 ar
    51   27   54 1
    52   28   34 1
    53   28   29 ar
    54   29   30 ar
    55   29   31 1
    56   30   55 1
    57   31   32 am
    58   31   56 1
    59   32   33 2
    60   32   34 1
    61   34   35 1
    62   34   36 1
    63   35   57 1
    64   35   58 1
    65   35   59 1
    66   36   60 1
    67   36   61 1
    68   36   62 1
@<TRIPOS>MOLECULE
CHEMBL1091686
   71    76     0     0     0
SMALL
USER_CHARGES

@<TRIPOS>ATOM
      1 C1         -0.0053    1.3819    0.0194 C.ar      1 <0>        -0.1012
      2 C2          1.1799    2.0889    0.0213 C.ar      1 <0>        -0.0867
      3 C3          2.3990    1.4080    0.0091 C.ar      1 <0>        -0.0515
      4 C4          2.4131    0.0127   -0.0050 C.ar      1 <0>        -0.0821
      5 C5          1.2172   -0.6877   -0.0068 C.ar      1 <0>         0.1460
      6 C6          0.0089   -0.0001    0.0054 C.ar      1 <0>        -0.1226
      7 N1          1.2259   -2.0863   -0.0214 N.am      1 <0>        -0.6693
      8 C7          2.1817   -2.7472   -0.7040 C.2       1 <0>         0.5646
      9 O1          3.0841   -2.1311   -1.2368 O.2       1 <0>        -0.5080
     10 C8          2.1328   -4.2211   -0.8047 C.ar      1 <0>        -0.1430
     11 C9          1.0947   -4.9311   -0.1989 C.ar      1 <0>        -0.0544
     12 C10         1.0547   -6.3064   -0.2971 C.ar      1 <0>        -0.1217
     13 C11         2.0406   -6.9823   -0.9943 C.ar      1 <0>        -0.0389
     14 C12         3.0724   -6.2848   -1.5966 C.ar      1 <0>        -0.1866
     15 C13         3.1211   -4.9085   -1.5109 C.ar      1 <0>        -0.0064
     16 C14         4.1420   -7.0293   -2.3534 C.3       1 <0>         0.5095
     17 F1          3.8768   -8.4021   -2.3062 F         1 <0>        -0.1724
     18 F2          4.1538   -6.6021   -3.6855 F         1 <0>        -0.1735
     19 F3          5.3883   -6.7747   -1.7710 F         1 <0>        -0.1712
     20 C15         3.6694    2.1622    0.0106 C.2       1 <0>         0.2333
     21 C16         4.5370    2.0746    1.0792 C.2       1 <0>        -0.2018
     22 C17         5.7310    2.8012    1.0492 C.2       1 <0>         0.1887
     23 N2          6.0230    3.5582    0.0170 N.2       1 <0>        -0.4592
     24 C18         5.1930    3.6564   -1.0306 C.2       1 <0>         0.2660
     25 N3          4.0111    2.9596   -1.0550 N.pl3     1 <0>        -0.2966
     26 N4          3.3654    3.2494   -2.2620 N.2       1 <0>        -0.2939
     27 C19         4.1182    4.0846   -2.9567 C.2       1 <0>         0.1397
     28 C20         5.2680    4.3718   -2.2167 C.2       1 <0>        -0.2391
     29 C21         3.7905    4.6360   -4.2952 C.ar      1 <0>         0.0727
     30 C22         4.6675    5.5119   -4.9451 C.ar      1 <0>        -0.1894
     31 C23         4.3288    6.0033   -6.1872 C.ar      1 <0>         0.1564
     32 N5          3.1939    5.6596   -6.7676 N.ar      1 <0>        -0.5287
     33 C24         2.3344    4.8340   -6.1899 C.ar      1 <0>         0.3947
     34 C25         2.6039    4.2902   -4.9401 C.ar      1 <0>        -0.2074
     35 N6          1.1524    4.5039   -6.8433 N.pl3     1 <0>        -0.7290
     36 C26         0.1963    3.5914   -6.2113 C.3       1 <0>         0.1095
     37 C27        -1.0091    3.3969   -7.1334 C.3       1 <0>        -0.0160
     38 N7         -1.9678    2.4820   -6.4997 N.4       1 <0>        -0.3911
     39 C28        -2.5871    3.1292   -5.3149 C.3       1 <0>        -0.0112
     40 C29        -3.9017    2.3323   -5.1222 C.3       1 <0>        -0.1445
     41 C30        -4.3580    2.0620   -6.5744 C.3       1 <0>        -0.1450
     42 C31        -3.0820    2.1884   -7.4270 C.3       1 <0>        -0.0074
     43 H1         -0.9471    1.9103    0.0333 H         1 <0>         0.1348
     44 H2          1.1646    3.1688    0.0319 H         1 <0>         0.1255
     45 H3          3.3528   -0.5196   -0.0148 H         1 <0>         0.1476
     46 H4         -0.9219   -0.5478    0.0044 H         1 <0>         0.1329
     47 H5          0.5439   -2.5805    0.4598 H         1 <0>         0.4146
     48 H6          0.3248   -4.4049    0.3458 H         1 <0>         0.1368
     49 H7          0.2524   -6.8569    0.1714 H         1 <0>         0.1482
     50 H8          2.0047   -8.0591   -1.0682 H         1 <0>         0.1497
     51 H9          3.9245   -4.3648   -1.9856 H         1 <0>         0.1492
     52 H10         4.2968    1.4525    1.9288 H         1 <0>         0.1719
     53 H11         6.4174    2.7397    1.8807 H         1 <0>         0.1888
     54 H12         6.0748    5.0232   -2.5188 H         1 <0>         0.1691
     55 H13         5.5982    5.7996   -4.4788 H         1 <0>         0.1466
     56 H14         5.0015    6.6798   -6.6933 H         1 <0>         0.1697
     57 H15         1.9032    3.6134   -4.4738 H         1 <0>         0.1339
     58 H16         0.9609    4.8777   -7.7177 H         1 <0>         0.4119
     59 H17         0.6760    2.6291   -6.0326 H         1 <0>         0.0822
     60 H18        -0.1362    4.0133   -5.2629 H         1 <0>         0.0822
     61 H19        -1.4888    4.3592   -7.3121 H         1 <0>         0.1383
     62 H20        -0.6766    2.9750   -8.0819 H         1 <0>         0.1387
     63 H21        -1.9439    3.0273   -4.4408 H         1 <0>         0.1368
     64 H22        -2.7996    4.1790   -5.5171 H         1 <0>         0.1362
     65 H23        -3.7120    1.3963   -4.5969 H         1 <0>         0.0986
     66 H24        -4.6414    2.9311   -4.5907 H         1 <0>         0.1178
     67 H25        -4.7722    1.0574   -6.6599 H         1 <0>         0.1061
     68 H26        -5.0947    2.8034   -6.8837 H         1 <0>         0.1050
     69 H27        -3.1932    3.0023   -8.1434 H         1 <0>         0.1325
     70 H28        -2.8916    1.2520   -7.9515 H         1 <0>         0.1341
     71 H29        -1.5062    1.6267   -6.2286 H         1 <0>         0.4290
@<TRIPOS>BOND
     1    1    6 ar
     2    1    2 ar
     3    1   43 1
     4    2    3 ar
     5    2   44 1
     6    3    4 ar
     7    3   20 1
     8    4    5 ar
     9    4   45 1
    10    5    6 ar
    11    5    7 1
    12    6   46 1
    13    7    8 am
    14    7   47 1
    15    8    9 2
    16    8   10 1
    17   10   15 ar
    18   10   11 ar
    19   11   12 ar
    20   11   48 1
    21   12   13 ar
    22   12   49 1
    23   13   14 ar
    24   13   50 1
    25   14   15 ar
    26   14   16 1
    27   15   51 1
    28   16   17 1
    29   16   18 1
    30   16   19 1
    31   20   25 1
    32   20   21 2
    33   21   22 1
    34   21   52 1
    35   22   23 2
    36   22   53 1
    37   23   24 1
    38   24   28 2
    39   24   25 1
    40   25   26 1
    41   26   27 2
    42   27   28 1
    43   27   29 1
    44   28   54 1
    45   29   34 ar
    46   29   30 ar
    47   30   31 ar
    48   30   55 1
    49   31   32 ar
    50   31   56 1
    51   32   33 ar
    52   33   34 ar
    53   33   35 1
    54   34   57 1
    55   35   36 1
    56   35   58 1
    57   36   37 1
    58   36   59 1
    59   36   60 1
    60   37   38 1
    61   37   61 1
    62   37   62 1
    63   38   42 1
    64   38   39 1
    65   38   71 1
    66   39   40 1
    67   39   63 1
    68   39   64 1
    69   40   41 1
    70   40   65 1
    71   40   66 1
    72   41   42 1
    73   41   67 1
    74   41   68 1
    75   42   69 1
    76   42   70 1
@<TRIPOS>MOLECULE
CHEMBL1091686__1
   72    77     0     0     0
SMALL
USER_CHARGES

@<TRIPOS>ATOM
      1 C1         -0.0053    1.3819    0.0194 C.ar      1 <0>        -0.1007
      2 C2          1.1799    2.0889    0.0213 C.ar      1 <0>        -0.0895
      3 C3          2.3990    1.4080    0.0091 C.ar      1 <0>        -0.0601
      4 C4          2.4131    0.0127   -0.0050 C.ar      1 <0>        -0.0812
      5 C5          1.2172   -0.6877   -0.0068 C.ar      1 <0>         0.1512
      6 C6          0.0089   -0.0001    0.0054 C.ar      1 <0>        -0.1191
      7 N1          1.2259   -2.0863   -0.0214 N.am      1 <0>        -0.6707
      8 C7          2.1817   -2.7472   -0.7040 C.2       1 <0>         0.5692
      9 O1          3.0841   -2.1311   -1.2368 O.2       1 <0>        -0.5129
     10 C8          2.1328   -4.2211   -0.8047 C.ar      1 <0>        -0.1480
     11 C9          1.0947   -4.9311   -0.1989 C.ar      1 <0>        -0.0539
     12 C10         1.0547   -6.3064   -0.2971 C.ar      1 <0>        -0.1202
     13 C11         2.0406   -6.9823   -0.9943 C.ar      1 <0>        -0.0357
     14 C12         3.0724   -6.2848   -1.5966 C.ar      1 <0>        -0.1860
     15 C13         3.1211   -4.9085   -1.5109 C.ar      1 <0>        -0.0061
     16 C14         4.1420   -7.0293   -2.3534 C.3       1 <0>         0.5093
     17 F1          3.8768   -8.4021   -2.3062 F         1 <0>        -0.1706
     18 F2          4.1538   -6.6021   -3.6855 F         1 <0>        -0.1744
     19 F3          5.3883   -6.7747   -1.7710 F         1 <0>        -0.1709
     20 C15         3.6694    2.1622    0.0106 C.2       1 <0>         0.2300
     21 C16         4.5370    2.0746    1.0792 C.2       1 <0>        -0.1812
     22 C17         5.7310    2.8012    1.0492 C.2       1 <0>         0.2022
     23 N2          6.0230    3.5582    0.0170 N.2       1 <0>        -0.4568
     24 C18         5.1930    3.6564   -1.0306 C.2       1 <0>         0.2770
     25 N3          4.0111    2.9596   -1.0550 N.pl3     1 <0>        -0.2823
     26 N4          3.3654    3.2494   -2.2620 N.2       1 <0>        -0.2806
     27 C19         4.1182    4.0846   -2.9567 C.2       1 <0>         0.0886
     28 C20         5.2680    4.3718   -2.2167 C.2       1 <0>        -0.2245
     29 C21         3.7905    4.6360   -4.2952 C.ar      1 <0>         0.1710
     30 C22         4.6675    5.5119   -4.9451 C.ar      1 <0>        -0.1445
     31 C23         4.3288    6.0033   -6.1872 C.ar      1 <0>         0.1662
     32 N5          3.1939    5.6596   -6.7676 N.ar      1 <0>        -0.4970
     33 C24         2.3344    4.8340   -6.1899 C.ar      1 <0>         0.4447
     34 C25         2.6039    4.2902   -4.9401 C.ar      1 <0>        -0.1845
     35 N6          1.1524    4.5039   -6.8433 N.pl3     1 <0>        -0.7136
     36 C26         0.1963    3.5914   -6.2113 C.3       1 <0>         0.0918
     37 C27        -1.0091    3.3969   -7.1334 C.3       1 <0>        -0.0176
     38 N7         -1.9678    2.4820   -6.4997 N.4       1 <0>        -0.3922
     39 C28        -2.5871    3.1292   -5.3148 C.3       1 <0>        -0.0138
     40 C29        -3.9018    2.3323   -5.1222 C.3       1 <0>        -0.1448
     41 C30        -4.3580    2.0620   -6.5744 C.3       1 <0>        -0.1466
     42 C31        -3.0820    2.1884   -7.4270 C.3       1 <0>        -0.0074
     43 H1         -0.9471    1.9103    0.0333 H         1 <0>         0.1363
     44 H2          1.1646    3.1688    0.0319 H         1 <0>         0.1248
     45 H3          3.3528   -0.5196   -0.0148 H         1 <0>         0.1492
     46 H4         -0.9219   -0.5478    0.0044 H         1 <0>         0.1356
     47 H5          0.5439   -2.5805    0.4598 H         1 <0>         0.4171
     48 H6          0.3248   -4.4049    0.3458 H         1 <0>         0.1368
     49 H7          0.2524   -6.8569    0.1714 H         1 <0>         0.1499
     50 H8          2.0047   -8.0591   -1.0682 H         1 <0>         0.1515
     51 H9          3.9245   -4.3648   -1.9856 H         1 <0>         0.1483
     52 H10         4.2968    1.4525    1.9288 H         1 <0>         0.1804
     53 H11         6.4174    2.7397    1.8807 H         1 <0>         0.1973
     54 H12         6.0748    5.0232   -2.5188 H         1 <0>         0.1760
     55 H13         5.5982    5.7996   -4.4788 H         1 <0>         0.1933
     56 H14         5.0015    6.6798   -6.6933 H         1 <0>         0.2209
     57 H15         1.9032    3.6134   -4.4738 H         1 <0>         0.1798
     58 H16         0.9609    4.8777   -7.7177 H         1 <0>         0.4253
     59 H17         0.6760    2.6291   -6.0326 H         1 <0>         0.1061
     60 H18        -0.1362    4.0133   -5.2629 H         1 <0>         0.1055
     61 H19        -1.4888    4.3592   -7.3121 H         1 <0>         0.1433
     62 H20        -0.6766    2.9750   -8.0819 H         1 <0>         0.1436
     63 H21        -1.9439    3.0273   -4.4408 H         1 <0>         0.1373
     64 H22        -2.7996    4.1790   -5.5171 H         1 <0>         0.1374
     65 H23        -3.7120    1.3963   -4.5969 H         1 <0>         0.1014
     66 H24        -4.6414    2.9311   -4.5907 H         1 <0>         0.1215
     67 H25        -4.7723    1.0574   -6.6599 H         1 <0>         0.1103
     68 H26        -5.0947    2.8034   -6.8837 H         1 <0>         0.1080
     69 H27        -3.1932    3.0024   -8.1434 H         1 <0>         0.1340
     70 H28        -2.8916    1.2520   -7.9515 H         1 <0>         0.1379
     71 H29        -1.5062    1.6267   -6.2286 H         1 <0>         0.4314
     72 H30         2.9833    6.0224   -7.6422 H         1 <0>         0.4462
@<TRIPOS>BOND
     1    1    6 ar
     2    1    2 ar
     3    1   43 1
     4    2    3 ar
     5    2   44 1
     6    3    4 ar
     7    3   20 1
     8    4    5 ar
     9    4   45 1
    10    5    6 ar
    11    5    7 1
    12    6   46 1
    13    7    8 am
    14    7   47 1
    15    8    9 2
    16    8   10 1
    17   10   15 ar
    18   10   11 ar
    19   11   12 ar
    20   11   48 1
    21   12   13 ar
    22   12   49 1
    23   13   14 ar
    24   13   50 1
    25   14   15 ar
    26   14   16 1
    27   15   51 1
    28   16   17 1
    29   16   18 1
    30   16   19 1
    31   20   25 1
    32   20   21 2
    33   21   22 1
    34   21   52 1
    35   22   23 2
    36   22   53 1
    37   23   24 1
    38   24   28 2
    39   24   25 1
    40   25   26 1
    41   26   27 2
    42   27   28 1
    43   27   29 1
    44   28   54 1
    45   29   34 ar
    46   29   30 ar
    47   30   31 ar
    48   30   55 1
    49   31   32 ar
    50   31   56 1
    51   32   33 ar
    52   32   72 1
    53   33   34 ar
    54   33   35 1
    55   34   57 1
    56   35   36 1
    57   35   58 1
    58   36   37 1
    59   36   59 1
    60   36   60 1
    61   37   38 1
    62   37   61 1
    63   37   62 1
    64   38   42 1
    65   38   39 1
    66   38   71 1
    67   39   40 1
    68   39   63 1
    69   39   64 1
    70   40   41 1
    71   40   65 1
    72   40   66 1
    73   41   42 1
    74   41   67 1
    75   41   68 1
    76   42   69 1
    77   42   70 1
@<TRIPOS>MOLECULE
CHEMBL1091684
   72    77     0     0     0
SMALL
USER_CHARGES

@<TRIPOS>ATOM
      1 C1         -0.0053    1.3819    0.0194 C.ar      1 <0>        -0.0964
      2 C2          1.1799    2.0889    0.0213 C.ar      1 <0>        -0.0858
      3 C3          2.3990    1.4080    0.0091 C.ar      1 <0>        -0.0645
      4 C4          2.4131    0.0127   -0.0050 C.ar      1 <0>        -0.0816
      5 C5          1.2172   -0.6877   -0.0068 C.ar      1 <0>         0.1472
      6 C6          0.0089   -0.0001    0.0054 C.ar      1 <0>        -0.1152
      7 N1          1.2259   -2.0863   -0.0214 N.am      1 <0>        -0.6688
      8 C7          2.1817   -2.7472   -0.7040 C.2       1 <0>         0.5671
      9 O1          3.0841   -2.1311   -1.2368 O.2       1 <0>        -0.5116
     10 C8          2.1328   -4.2211   -0.8047 C.ar      1 <0>        -0.1436
     11 C9          1.0947   -4.9311   -0.1989 C.ar      1 <0>        -0.0533
     12 C10         1.0547   -6.3064   -0.2971 C.ar      1 <0>        -0.1211
     13 C11         2.0406   -6.9823   -0.9943 C.ar      1 <0>        -0.0385
     14 C12         3.0724   -6.2848   -1.5966 C.ar      1 <0>        -0.1875
     15 C13         3.1211   -4.9085   -1.5109 C.ar      1 <0>        -0.0063
     16 C14         4.1420   -7.0293   -2.3534 C.3       1 <0>         0.5097
     17 F1          3.8768   -8.4021   -2.3062 F         1 <0>        -0.1723
     18 F2          4.1538   -6.6021   -3.6855 F         1 <0>        -0.1734
     19 F3          5.3883   -6.7747   -1.7710 F         1 <0>        -0.1722
     20 C15         3.6694    2.1622    0.0106 C.2       1 <0>         0.2385
     21 C16         4.5370    2.0746    1.0792 C.2       1 <0>        -0.1910
     22 C17         5.7310    2.8012    1.0492 C.2       1 <0>         0.1981
     23 N2          6.0230    3.5582    0.0170 N.2       1 <0>        -0.4605
     24 C18         5.1930    3.6564   -1.0306 C.2       1 <0>         0.2729
     25 N3          4.0111    2.9596   -1.0550 N.pl3     1 <0>        -0.2866
     26 N4          3.3654    3.2494   -2.2620 N.2       1 <0>        -0.2718
     27 C19         4.1182    4.0846   -2.9567 C.2       1 <0>         0.0986
     28 C20         5.2680    4.3718   -2.2167 C.2       1 <0>        -0.2294
     29 C21         3.7905    4.6360   -4.2952 C.ar      1 <0>         0.1578
     30 C22         4.6675    5.5119   -4.9451 C.ar      1 <0>        -0.1542
     31 C23         4.3288    6.0033   -6.1872 C.ar      1 <0>         0.1562
     32 N5          3.1939    5.6596   -6.7676 N.ar      1 <0>        -0.5053
     33 C24         2.3344    4.8340   -6.1899 C.ar      1 <0>         0.4513
     34 C25         2.6039    4.2902   -4.9401 C.ar      1 <0>        -0.1796
     35 N6          1.1524    4.5039   -6.8433 N.pl3     1 <0>        -0.6992
     36 C26         0.1963    3.5914   -6.2113 C.3       1 <0>         0.1105
     37 C27        -1.0091    3.3969   -7.1334 C.3       1 <0>         0.0415
     38 N7         -1.9678    2.4820   -6.4997 N.3       1 <0>        -0.5313
     39 C28        -1.4052    1.1290   -6.3805 C.3       1 <0>         0.0100
     40 C29        -2.4112    0.2252   -5.6630 C.3       1 <0>         0.0629
     41 O2         -3.6491    0.2356   -6.3791 O.3       1 <0>        -0.3803
     42 C30        -4.2256    1.5375   -6.5134 C.3       1 <0>         0.0618
     43 C31        -3.2380    2.4546   -7.2395 C.3       1 <0>         0.0184
     44 H1         -0.9471    1.9103    0.0333 H         1 <0>         0.1384
     45 H2          1.1646    3.1688    0.0319 H         1 <0>         0.1253
     46 H3          3.3528   -0.5196   -0.0148 H         1 <0>         0.1475
     47 H4         -0.9219   -0.5478    0.0044 H         1 <0>         0.1361
     48 H5          0.5439   -2.5805    0.4598 H         1 <0>         0.4157
     49 H6          0.3248   -4.4049    0.3458 H         1 <0>         0.1374
     50 H7          0.2524   -6.8569    0.1714 H         1 <0>         0.1486
     51 H8          2.0047   -8.0591   -1.0682 H         1 <0>         0.1496
     52 H9          3.9245   -4.3648   -1.9856 H         1 <0>         0.1485
     53 H10         4.2968    1.4525    1.9288 H         1 <0>         0.1775
     54 H11         6.4174    2.7397    1.8807 H         1 <0>         0.1934
     55 H12         6.0748    5.0232   -2.5188 H         1 <0>         0.1740
     56 H13         5.5982    5.7996   -4.4788 H         1 <0>         0.1869
     57 H14         5.0015    6.6798   -6.6933 H         1 <0>         0.2138
     58 H15         1.9032    3.6134   -4.4738 H         1 <0>         0.1823
     59 H16         0.9609    4.8777   -7.7177 H         1 <0>         0.4197
     60 H17         0.6760    2.6291   -6.0326 H         1 <0>         0.0884
     61 H18        -0.1362    4.0133   -5.2629 H         1 <0>         0.0996
     62 H19        -1.4888    4.3592   -7.3121 H         1 <0>         0.0913
     63 H20        -0.6766    2.9750   -8.0819 H         1 <0>         0.0505
     64 H21        -1.2020    0.7305   -7.3745 H         1 <0>         0.0497
     65 H22        -0.4788    1.1693   -5.8075 H         1 <0>         0.0867
     66 H23        -2.0224   -0.7923   -5.6230 H         1 <0>         0.1016
     67 H24        -2.5736    0.5935   -4.6501 H         1 <0>         0.0626
     68 H25        -5.1490    1.4691   -7.0885 H         1 <0>         0.1049
     69 H26        -4.4408    1.9440   -5.5252 H         1 <0>         0.0637
     70 H27        -3.6495    3.4625   -7.2936 H         1 <0>         0.0919
     71 H28        -3.0641    2.0772   -8.2472 H         1 <0>         0.0498
     72 H29         2.9833    6.0224   -7.6422 H         1 <0>         0.4429
@<TRIPOS>BOND
     1    1    6 ar
     2    1    2 ar
     3    1   44 1
     4    2    3 ar
     5    2   45 1
     6    3    4 ar
     7    3   20 1
     8    4    5 ar
     9    4   46 1
    10    5    6 ar
    11    5    7 1
    12    6   47 1
    13    7    8 am
    14    7   48 1
    15    8    9 2
    16    8   10 1
    17   10   15 ar
    18   10   11 ar
    19   11   12 ar
    20   11   49 1
    21   12   13 ar
    22   12   50 1
    23   13   14 ar
    24   13   51 1
    25   14   15 ar
    26   14   16 1
    27   15   52 1
    28   16   17 1
    29   16   18 1
    30   16   19 1
    31   20   25 1
    32   20   21 2
    33   21   22 1
    34   21   53 1
    35   22   23 2
    36   22   54 1
    37   23   24 1
    38   24   28 2
    39   24   25 1
    40   25   26 1
    41   26   27 2
    42   27   28 1
    43   27   29 1
    44   28   55 1
    45   29   34 ar
    46   29   30 ar
    47   30   31 ar
    48   30   56 1
    49   31   32 ar
    50   31   57 1
    51   32   33 ar
    52   32   72 1
    53   33   34 ar
    54   33   35 1
    55   34   58 1
    56   35   36 1
    57   35   59 1
    58   36   37 1
    59   36   60 1
    60   36   61 1
    61   37   38 1
    62   37   62 1
    63   37   63 1
    64   38   43 1
    65   38   39 1
    66   39   40 1
    67   39   64 1
    68   39   65 1
    69   40   41 1
    70   40   66 1
    71   40   67 1
    72   41   42 1
    73   42   43 1
    74   42   68 1
    75   42   69 1
    76   43   70 1
    77   43   71 1
@<TRIPOS>MOLECULE
CHEMBL1091684__1
   73    78     0     0     0
SMALL
USER_CHARGES

@<TRIPOS>ATOM
      1 C1         -0.0053    1.3819    0.0194 C.ar      1 <0>        -0.1007
      2 C2          1.1799    2.0889    0.0213 C.ar      1 <0>        -0.0895
      3 C3          2.3990    1.4080    0.0091 C.ar      1 <0>        -0.0600
      4 C4          2.4131    0.0127   -0.0050 C.ar      1 <0>        -0.0813
      5 C5          1.2172   -0.6877   -0.0068 C.ar      1 <0>         0.1512
      6 C6          0.0089   -0.0001    0.0054 C.ar      1 <0>        -0.1193
      7 N1          1.2259   -2.0863   -0.0214 N.am      1 <0>        -0.6707
      8 C7          2.1817   -2.7472   -0.7040 C.2       1 <0>         0.5694
      9 O1          3.0841   -2.1311   -1.2368 O.2       1 <0>        -0.5132
     10 C8          2.1328   -4.2211   -0.8047 C.ar      1 <0>        -0.1483
     11 C9          1.0947   -4.9311   -0.1989 C.ar      1 <0>        -0.0539
     12 C10         1.0547   -6.3064   -0.2971 C.ar      1 <0>        -0.1201
     13 C11         2.0406   -6.9823   -0.9943 C.ar      1 <0>        -0.0355
     14 C12         3.0724   -6.2848   -1.5966 C.ar      1 <0>        -0.1860
     15 C13         3.1211   -4.9085   -1.5109 C.ar      1 <0>        -0.0061
     16 C14         4.1420   -7.0293   -2.3534 C.3       1 <0>         0.5093
     17 F1          3.8768   -8.4021   -2.3062 F         1 <0>        -0.1705
     18 F2          4.1538   -6.6021   -3.6855 F         1 <0>        -0.1745
     19 F3          5.3883   -6.7747   -1.7710 F         1 <0>        -0.1709
     20 C15         3.6694    2.1622    0.0106 C.2       1 <0>         0.2297
     21 C16         4.5370    2.0746    1.0792 C.2       1 <0>        -0.1808
     22 C17         5.7310    2.8012    1.0492 C.2       1 <0>         0.2024
     23 N2          6.0230    3.5582    0.0170 N.2       1 <0>        -0.4566
     24 C18         5.1930    3.6564   -1.0306 C.2       1 <0>         0.2772
     25 N3          4.0111    2.9596   -1.0550 N.pl3     1 <0>        -0.2821
     26 N4          3.3654    3.2494   -2.2620 N.2       1 <0>        -0.2810
     27 C19         4.1182    4.0846   -2.9567 C.2       1 <0>         0.0882
     28 C20         5.2680    4.3718   -2.2167 C.2       1 <0>        -0.2242
     29 C21         3.7905    4.6360   -4.2952 C.ar      1 <0>         0.1717
     30 C22         4.6675    5.5119   -4.9451 C.ar      1 <0>        -0.1441
     31 C23         4.3288    6.0033   -6.1872 C.ar      1 <0>         0.1669
     32 N5          3.1939    5.6596   -6.7676 N.ar      1 <0>        -0.4966
     33 C24         2.3344    4.8340   -6.1899 C.ar      1 <0>         0.4444
     34 C25         2.6039    4.2902   -4.9401 C.ar      1 <0>        -0.1850
     35 N6          1.1524    4.5039   -6.8433 N.pl3     1 <0>        -0.7136
     36 C26         0.1963    3.5914   -6.2113 C.3       1 <0>         0.0907
     37 C27        -1.0091    3.3969   -7.1334 C.3       1 <0>        -0.0221
     38 N7         -1.9678    2.4820   -6.4997 N.4       1 <0>        -0.3819
     39 C28        -1.3610    1.1502   -6.3687 C.3       1 <0>        -0.0536
     40 C29        -2.3618    0.1989   -5.7080 C.3       1 <0>         0.0363
     41 O2         -3.5587    0.1562   -6.4899 O.3       1 <0>        -0.3510
     42 C30        -4.1748    1.4350   -6.6663 C.3       1 <0>         0.0347
     43 C31        -3.1774    2.3886   -7.3288 C.3       1 <0>        -0.0432
     44 H1         -0.9471    1.9103    0.0333 H         1 <0>         0.1363
     45 H2          1.1646    3.1688    0.0319 H         1 <0>         0.1248
     46 H3          3.3528   -0.5196   -0.0148 H         1 <0>         0.1493
     47 H4         -0.9219   -0.5478    0.0044 H         1 <0>         0.1357
     48 H5          0.5439   -2.5805    0.4598 H         1 <0>         0.4172
     49 H6          0.3248   -4.4049    0.3458 H         1 <0>         0.1368
     50 H7          0.2524   -6.8569    0.1714 H         1 <0>         0.1499
     51 H8          2.0047   -8.0591   -1.0682 H         1 <0>         0.1515
     52 H9          3.9245   -4.3648   -1.9856 H         1 <0>         0.1482
     53 H10         4.2968    1.4525    1.9288 H         1 <0>         0.1806
     54 H11         6.4174    2.7397    1.8807 H         1 <0>         0.1974
     55 H12         6.0748    5.0232   -2.5188 H         1 <0>         0.1761
     56 H13         5.5982    5.7996   -4.4788 H         1 <0>         0.1936
     57 H14         5.0015    6.6798   -6.6933 H         1 <0>         0.2212
     58 H15         1.9032    3.6134   -4.4738 H         1 <0>         0.1795
     59 H16         0.9609    4.8777   -7.7177 H         1 <0>         0.4257
     60 H17         0.6760    2.6291   -6.0326 H         1 <0>         0.1058
     61 H18        -0.1362    4.0133   -5.2629 H         1 <0>         0.1074
     62 H19        -1.4888    4.3592   -7.3121 H         1 <0>         0.1475
     63 H20        -0.6766    2.9750   -8.0819 H         1 <0>         0.1454
     64 H21        -1.0974    0.7720   -7.3564 H         1 <0>         0.1451
     65 H22        -0.4637    1.2184   -5.7537 H         1 <0>         0.1416
     66 H23        -1.9299   -0.8001   -5.6489 H         1 <0>         0.1453
     67 H24        -2.5950    0.5553   -4.7047 H         1 <0>         0.0843
     68 H25        -5.0550    1.3306   -7.3007 H         1 <0>         0.1481
     69 H26        -4.4700    1.8337   -5.6957 H         1 <0>         0.0850
     70 H27        -3.6284    3.3761   -7.4265 H         1 <0>         0.1477
     71 H28        -2.9131    2.0099   -8.3161 H         1 <0>         0.1439
     72 H29         2.9833    6.0224   -7.6422 H         1 <0>         0.4464
     73 H30        -2.2127    2.8317   -5.5855 H         1 <0>         0.4273
@<TRIPOS>BOND
     1    1    6 ar
     2    1    2 ar
     3    1   44 1
     4    2    3 ar
     5    2   45 1
     6    3    4 ar
     7    3   20 1
     8    4    5 ar
     9    4   46 1
    10    5    6 ar
    11    5    7 1
    12    6   47 1
    13    7    8 am
    14    7   48 1
    15    8    9 2
    16    8   10 1
    17   10   15 ar
    18   10   11 ar
    19   11   12 ar
    20   11   49 1
    21   12   13 ar
    22   12   50 1
    23   13   14 ar
    24   13   51 1
    25   14   15 ar
    26   14   16 1
    27   15   52 1
    28   16   17 1
    29   16   18 1
    30   16   19 1
    31   20   25 1
    32   20   21 2
    33   21   22 1
    34   21   53 1
    35   22   23 2
    36   22   54 1
    37   23   24 1
    38   24   28 2
    39   24   25 1
    40   25   26 1
    41   26   27 2
    42   27   28 1
    43   27   29 1
    44   28   55 1
    45   29   34 ar
    46   29   30 ar
    47   30   31 ar
    48   30   56 1
    49   31   32 ar
    50   31   57 1
    51   32   33 ar
    52   32   72 1
    53   33   34 ar
    54   33   35 1
    55   34   58 1
    56   35   36 1
    57   35   59 1
    58   36   37 1
    59   36   60 1
    60   36   61 1
    61   37   38 1
    62   37   62 1
    63   37   63 1
    64   38   43 1
    65   38   39 1
    66   38   73 1
    67   39   40 1
    68   39   64 1
    69   39   65 1
    70   40   41 1
    71   40   66 1
    72   40   67 1
    73   41   42 1
    74   42   43 1
    75   42   68 1
    76   42   69 1
    77   43   70 1
    78   43   71 1
@<TRIPOS>MOLECULE
CHEMBL1091684__2
   71    76     0     0     0
SMALL
USER_CHARGES

@<TRIPOS>ATOM
      1 C1         -0.0053    1.3819    0.0194 C.ar      1 <0>        -0.0969
      2 C2          1.1799    2.0889    0.0213 C.ar      1 <0>        -0.0830
      3 C3          2.3990    1.4080    0.0091 C.ar      1 <0>        -0.0560
      4 C4          2.4131    0.0127   -0.0050 C.ar      1 <0>        -0.0824
      5 C5          1.2172   -0.6877   -0.0068 C.ar      1 <0>         0.1420
      6 C6          0.0089   -0.0001    0.0054 C.ar      1 <0>        -0.1187
      7 N1          1.2259   -2.0863   -0.0214 N.am      1 <0>        -0.6674
      8 C7          2.1817   -2.7472   -0.7040 C.2       1 <0>         0.5625
      9 O1          3.0841   -2.1311   -1.2368 O.2       1 <0>        -0.5067
     10 C8          2.1328   -4.2211   -0.8047 C.ar      1 <0>        -0.1386
     11 C9          1.0947   -4.9311   -0.1989 C.ar      1 <0>        -0.0538
     12 C10         1.0547   -6.3064   -0.2971 C.ar      1 <0>        -0.1225
     13 C11         2.0406   -6.9823   -0.9943 C.ar      1 <0>        -0.0417
     14 C12         3.0724   -6.2848   -1.5966 C.ar      1 <0>        -0.1881
     15 C13         3.1211   -4.9085   -1.5109 C.ar      1 <0>        -0.0066
     16 C14         4.1420   -7.0293   -2.3534 C.3       1 <0>         0.5098
     17 F1          3.8768   -8.4021   -2.3062 F         1 <0>        -0.1740
     18 F2          4.1538   -6.6021   -3.6855 F         1 <0>        -0.1725
     19 F3          5.3883   -6.7747   -1.7710 F         1 <0>        -0.1725
     20 C15         3.6694    2.1622    0.0106 C.2       1 <0>         0.2415
     21 C16         4.5370    2.0746    1.0792 C.2       1 <0>        -0.2107
     22 C17         5.7310    2.8012    1.0492 C.2       1 <0>         0.1846
     23 N2          6.0230    3.5582    0.0170 N.2       1 <0>        -0.4623
     24 C18         5.1930    3.6564   -1.0306 C.2       1 <0>         0.2606
     25 N3          4.0111    2.9596   -1.0550 N.pl3     1 <0>        -0.2993
     26 N4          3.3654    3.2494   -2.2620 N.2       1 <0>        -0.2851
     27 C19         4.1182    4.0846   -2.9567 C.2       1 <0>         0.1477
     28 C20         5.2680    4.3718   -2.2167 C.2       1 <0>        -0.2404
     29 C21         3.7905    4.6360   -4.2952 C.ar      1 <0>         0.0653
     30 C22         4.6675    5.5119   -4.9451 C.ar      1 <0>        -0.2050
     31 C23         4.3288    6.0033   -6.1872 C.ar      1 <0>         0.1522
     32 N5          3.1939    5.6596   -6.7676 N.ar      1 <0>        -0.5381
     33 C24         2.3344    4.8340   -6.1899 C.ar      1 <0>         0.4051
     34 C25         2.6039    4.2902   -4.9401 C.ar      1 <0>        -0.2053
     35 N6          1.1524    4.5039   -6.8433 N.pl3     1 <0>        -0.7253
     36 C26         0.1963    3.5914   -6.2113 C.3       1 <0>         0.1313
     37 C27        -1.0091    3.3969   -7.1334 C.3       1 <0>         0.0456
     38 N7         -1.9678    2.4820   -6.4997 N.3       1 <0>        -0.5323
     39 C28        -1.4051    1.1290   -6.3805 C.3       1 <0>         0.0114
     40 C29        -2.4112    0.2252   -5.6630 C.3       1 <0>         0.0645
     41 O2         -3.6491    0.2356   -6.3791 O.3       1 <0>        -0.3846
     42 C30        -4.2256    1.5375   -6.5134 C.3       1 <0>         0.0634
     43 C31        -3.2379    2.4546   -7.2395 C.3       1 <0>         0.0181
     44 H1         -0.9471    1.9103    0.0333 H         1 <0>         0.1370
     45 H2          1.1646    3.1688    0.0319 H         1 <0>         0.1260
     46 H3          3.3528   -0.5196   -0.0148 H         1 <0>         0.1459
     47 H4         -0.9219   -0.5478    0.0044 H         1 <0>         0.1335
     48 H5          0.5439   -2.5805    0.4598 H         1 <0>         0.4133
     49 H6          0.3248   -4.4049    0.3458 H         1 <0>         0.1375
     50 H7          0.2524   -6.8569    0.1714 H         1 <0>         0.1470
     51 H8          2.0047   -8.0591   -1.0682 H         1 <0>         0.1479
     52 H9          3.9245   -4.3648   -1.9856 H         1 <0>         0.1494
     53 H10         4.2968    1.4525    1.9288 H         1 <0>         0.1691
     54 H11         6.4174    2.7397    1.8807 H         1 <0>         0.1850
     55 H12         6.0748    5.0232   -2.5188 H         1 <0>         0.1676
     56 H13         5.5982    5.7996   -4.4788 H         1 <0>         0.1398
     57 H14         5.0015    6.6798   -6.6933 H         1 <0>         0.1627
     58 H15         1.9032    3.6134   -4.4738 H         1 <0>         0.1375
     59 H16         0.9609    4.8777   -7.7177 H         1 <0>         0.4055
     60 H17         0.6760    2.6291   -6.0326 H         1 <0>         0.0633
     61 H18        -0.1362    4.0133   -5.2629 H         1 <0>         0.0740
     62 H19        -1.4888    4.3592   -7.3121 H         1 <0>         0.0858
     63 H20        -0.6766    2.9750   -8.0819 H         1 <0>         0.0449
     64 H21        -1.2020    0.7304   -7.3745 H         1 <0>         0.0462
     65 H22        -0.4788    1.1693   -5.8075 H         1 <0>         0.0894
     66 H23        -2.0224   -0.7923   -5.6230 H         1 <0>         0.0985
     67 H24        -2.5736    0.5935   -4.6501 H         1 <0>         0.0609
     68 H25        -5.1490    1.4690   -7.0885 H         1 <0>         0.1003
     69 H26        -4.4408    1.9440   -5.5252 H         1 <0>         0.0613
     70 H27        -3.6495    3.4625   -7.2936 H         1 <0>         0.0891
     71 H28        -3.0641    2.0772   -8.2472 H         1 <0>         0.0458
@<TRIPOS>BOND
     1    1    6 ar
     2    1    2 ar
     3    1   44 1
     4    2    3 ar
     5    2   45 1
     6    3    4 ar
     7    3   20 1
     8    4    5 ar
     9    4   46 1
    10    5    6 ar
    11    5    7 1
    12    6   47 1
    13    7    8 am
    14    7   48 1
    15    8    9 2
    16    8   10 1
    17   10   15 ar
    18   10   11 ar
    19   11   12 ar
    20   11   49 1
    21   12   13 ar
    22   12   50 1
    23   13   14 ar
    24   13   51 1
    25   14   15 ar
    26   14   16 1
    27   15   52 1
    28   16   17 1
    29   16   18 1
    30   16   19 1
    31   20   25 1
    32   20   21 2
    33   21   22 1
    34   21   53 1
    35   22   23 2
    36   22   54 1
    37   23   24 1
    38   24   28 2
    39   24   25 1
    40   25   26 1
    41   26   27 2
    42   27   28 1
    43   27   29 1
    44   28   55 1
    45   29   34 ar
    46   29   30 ar
    47   30   31 ar
    48   30   56 1
    49   31   32 ar
    50   31   57 1
    51   32   33 ar
    52   33   34 ar
    53   33   35 1
    54   34   58 1
    55   35   36 1
    56   35   59 1
    57   36   37 1
    58   36   60 1
    59   36   61 1
    60   37   38 1
    61   37   62 1
    62   37   63 1
    63   38   43 1
    64   38   39 1
    65   39   40 1
    66   39   64 1
    67   39   65 1
    68   40   41 1
    69   40   66 1
    70   40   67 1
    71   41   42 1
    72   42   43 1
    73   42   68 1
    74   42   69 1
    75   43   70 1
    76   43   71 1
@<TRIPOS>MOLECULE
CHEMBL505187
   68    73     0     0     0
SMALL
USER_CHARGES

@<TRIPOS>ATOM
      1 C1          0.3305   -1.1307    1.9418 C.3       1 <0>        -0.1669
      2 C2         -0.1232   -1.6457    0.5744 C.3       1 <0>         0.1296
      3 N1         -1.4909   -1.1917    0.3108 N.pl3     1 <0>        -0.3628
      4 C3         -1.8968   -0.5028   -0.7743 C.2       1 <0>         0.0770
      5 C4         -3.2354   -0.2718   -0.6457 C.2       1 <0>        -0.1932
      6 C5         -3.6512   -0.8529    0.5800 C.2       1 <0>         0.1373
      7 N2         -2.5980   -1.4054    1.1404 N.2       1 <0>        -0.2741
      8 C6         -5.0290   -0.8435    1.1286 C.ar      1 <0>         0.0089
      9 C7         -6.1164   -1.0911    0.2917 C.ar      1 <0>        -0.1007
     10 C8         -7.3981   -1.0819    0.8039 C.ar      1 <0>        -0.0995
     11 C9         -7.6086   -0.8276    2.1462 C.ar      1 <0>        -0.1361
     12 C10        -6.5311   -0.5799    2.9875 C.ar      1 <0>         0.1569
     13 C11        -5.2398   -0.5930    2.4820 C.ar      1 <0>        -0.0876
     14 N3         -6.7484   -0.3225    4.3459 N.am      1 <0>        -0.6814
     15 C12        -5.9610    0.5542    5.0000 C.2       1 <0>         0.7033
     16 O1         -5.0115    1.0594    4.4327 O.2       1 <0>        -0.5520
     17 N4         -6.2260    0.8709    6.2830 N.am      1 <0>        -0.6806
     18 C13        -5.4748    1.8616    6.9296 C.ar      1 <0>         0.1245
     19 C14        -5.1880    1.7432    8.2829 C.ar      1 <0>        -0.1031
     20 C15        -4.4478    2.7198    8.9195 C.ar      1 <0>        -0.1313
     21 C16        -3.9909    3.8190    8.2073 C.ar      1 <0>         0.1171
     22 C17        -4.2771    3.9379    6.8552 C.ar      1 <0>        -0.1891
     23 C18        -5.0124    2.9591    6.2161 C.ar      1 <0>        -0.0746
     24 O2         -3.2625    4.7805    8.8349 O.3       1 <0>        -0.3085
     25 C19        -2.8243    5.8845    8.0404 C.3       1 <0>         0.1019
     26 C20        -2.0380    6.8409    8.8996 C.ar      1 <0>        -0.0979
     27 C21        -2.6855    7.8664    9.5629 C.ar      1 <0>        -0.0953
     28 C22        -1.9643    8.7437   10.3510 C.ar      1 <0>        -0.1233
     29 C23        -0.5956    8.5952   10.4762 C.ar      1 <0>        -0.1092
     30 C24         0.0517    7.5691    9.8136 C.ar      1 <0>        -0.1231
     31 C25        -0.6701    6.6893    9.0289 C.ar      1 <0>        -0.0952
     32 C26        -4.0961    0.4528   -1.6084 C.ar      1 <0>         0.0911
     33 C27        -4.3427   -0.0600   -2.8826 C.ar      1 <0>        -0.1996
     34 C28        -5.1524    0.6486   -3.7509 C.ar      1 <0>         0.1396
     35 N5         -5.6984    1.7970   -3.4075 N.ar      1 <0>        -0.5037
     36 C29        -5.5031    2.3383   -2.2113 C.ar      1 <0>         0.2877
     37 C30        -4.6970    1.6785   -1.2665 C.ar      1 <0>        -0.1334
     38 C31        -4.6925    2.5202   -0.0714 C.2       1 <0>        -0.1775
     39 C32        -5.4622    3.5870   -0.3431 C.2       1 <0>         0.0555
     40 N6         -5.9469    3.4973   -1.6208 N.pl3     1 <0>        -0.5836
     41 H1         -6.5268    4.1502   -2.0430 H         1 <0>         0.4186
     42 H2          1.3481   -1.4685    2.1379 H         1 <0>         0.0766
     43 H3          0.3019   -0.0411    1.9474 H         1 <0>         0.0615
     44 H4         -0.3354   -1.5156    2.7142 H         1 <0>         0.0715
     45 H5          0.5426   -1.2608   -0.1980 H         1 <0>         0.0984
     46 H6         -0.0947   -2.7353    0.5687 H         1 <0>         0.0876
     47 H7         -1.2734   -0.1891   -1.5985 H         1 <0>         0.1783
     48 H8         -5.9558   -1.2898   -0.7577 H         1 <0>         0.1236
     49 H9         -8.2390   -1.2736    0.1540 H         1 <0>         0.1289
     50 H10        -8.6134   -0.8212    2.5420 H         1 <0>         0.1259
     51 H11        -4.4005   -0.4050    3.1352 H         1 <0>         0.1442
     52 H12        -7.4658   -0.7750    4.8165 H         1 <0>         0.4085
     53 H13        -6.9366    0.4131    6.7587 H         1 <0>         0.4076
     54 H14        -5.5440    0.8877    8.8376 H         1 <0>         0.1329
     55 H15        -4.2249    2.6280    9.9723 H         1 <0>         0.1355
     56 H16        -3.9211    4.7939    6.3012 H         1 <0>         0.1307
     57 H17        -5.2311    3.0495    5.1623 H         1 <0>         0.1382
     58 H18        -2.1927    5.5209    7.2299 H         1 <0>         0.0719
     59 H19        -3.6904    6.3986    7.6236 H         1 <0>         0.0718
     60 H20        -3.7548    7.9825    9.4652 H         1 <0>         0.1243
     61 H21        -2.4700    9.5453   10.8687 H         1 <0>         0.1257
     62 H22        -0.0320    9.2810   11.0914 H         1 <0>         0.1248
     63 H23         1.1211    7.4533    9.9111 H         1 <0>         0.1257
     64 H24        -0.1649    5.8854    8.5142 H         1 <0>         0.1243
     65 H25        -3.9059   -0.9996   -3.1872 H         1 <0>         0.1355
     66 H26        -5.3418    0.2503   -4.7367 H         1 <0>         0.1599
     67 H27        -4.1705    2.3221    0.8531 H         1 <0>         0.1454
     68 H28        -5.6614    4.3989    0.3407 H         1 <0>         0.1749
@<TRIPOS>BOND
     1    1    2 1
     2    1   42 1
     3    1   43 1
     4    1   44 1
     5    2    3 1
     6    2   45 1
     7    2   46 1
     8    3    7 1
     9    3    4 1
    10    4    5 2
    11    4   47 1
    12    5    6 1
    13    5   32 1
    14    6    7 2
    15    6    8 1
    16    8   13 ar
    17    8    9 ar
    18    9   10 ar
    19    9   48 1
    20   10   11 ar
    21   10   49 1
    22   11   12 ar
    23   11   50 1
    24   12   13 ar
    25   12   14 1
    26   13   51 1
    27   14   15 am
    28   14   52 1
    29   15   16 2
    30   15   17 am
    31   17   18 1
    32   17   53 1
    33   18   23 ar
    34   18   19 ar
    35   19   20 ar
    36   19   54 1
    37   20   21 ar
    38   20   55 1
    39   21   22 ar
    40   21   24 1
    41   22   23 ar
    42   22   56 1
    43   23   57 1
    44   24   25 1
    45   25   26 1
    46   25   58 1
    47   25   59 1
    48   26   31 ar
    49   26   27 ar
    50   27   28 ar
    51   27   60 1
    52   28   29 ar
    53   28   61 1
    54   29   30 ar
    55   29   62 1
    56   30   31 ar
    57   30   63 1
    58   31   64 1
    59   32   37 ar
    60   32   33 ar
    61   33   34 ar
    62   33   65 1
    63   34   35 ar
    64   34   66 1
    65   35   36 ar
    66   36   40 1
    67   36   37 ar
    68   37   38 1
    69   38   39 2
    70   38   67 1
    71   39   40 1
    72   39   68 1
    73   40   41 1
@<TRIPOS>MOLECULE
CHEMBL1091843
   52    56     0     0     0
SMALL
USER_CHARGES

@<TRIPOS>ATOM
      1 C1         -0.3088    1.2995   -0.4114 C.ar      1 <0>        -0.0972
      2 C2          0.8241    2.0731   -0.5626 C.ar      1 <0>        -0.0843
      3 C3          2.0833    1.4701   -0.5840 C.ar      1 <0>        -0.0577
      4 C4          2.1905    0.0850   -0.4521 C.ar      1 <0>        -0.0798
      5 C5          1.0467   -0.6824   -0.3007 C.ar      1 <0>         0.1581
      6 C6         -0.2021   -0.0724   -0.2807 C.ar      1 <0>        -0.1190
      7 N1          1.1488   -2.0720   -0.1684 N.am      1 <0>        -0.6792
      8 C7          2.0968   -2.7459   -0.8494 C.2       1 <0>         0.7060
      9 O1          2.9161   -2.1394   -1.5123 O.2       1 <0>        -0.5511
     10 N2          2.1367   -4.0920   -0.7955 N.am      1 <0>        -0.6795
     11 C8          3.1828   -4.7863   -1.4135 C.ar      1 <0>         0.1639
     12 C9          4.4547   -4.2303   -1.4609 C.ar      1 <0>        -0.0878
     13 C10         5.4850   -4.9182   -2.0710 C.ar      1 <0>        -0.0972
     14 C11         5.2514   -6.1595   -2.6344 C.ar      1 <0>        -0.0856
     15 C12         3.9863   -6.7154   -2.5893 C.ar      1 <0>        -0.1614
     16 C13         2.9527   -6.0349   -1.9754 C.ar      1 <0>        -0.0970
     17 C14         3.7361   -8.0680   -3.2049 C.3       1 <0>         0.5100
     18 F1          4.9256   -8.5568   -3.7558 F         1 <0>        -0.1743
     19 F2          3.2805   -8.9514   -2.2205 F         1 <0>        -0.1756
     20 F3          2.7700   -7.9514   -4.2101 F         1 <0>        -0.1750
     21 C15         3.2979    2.2955   -0.7463 C.2       1 <0>         0.2430
     22 C16         4.2315    2.3779    0.2656 C.2       1 <0>        -0.2104
     23 C17         5.3699    3.1678    0.0800 C.2       1 <0>         0.1856
     24 N3          5.5483    3.8238   -1.0433 N.2       1 <0>        -0.4630
     25 C18         4.6527    3.7564   -2.0379 C.2       1 <0>         0.2627
     26 N4          3.5211    2.9908   -1.9103 N.pl3     1 <0>        -0.2988
     27 N5          2.7866    3.1073   -3.0955 N.2       1 <0>        -0.2856
     28 C19         3.4388    3.9057   -3.9227 C.2       1 <0>         0.1459
     29 C20         4.6087    4.3411   -3.2951 C.2       1 <0>        -0.2439
     30 C21         2.9956    4.2865   -5.2870 C.ar      1 <0>         0.0246
     31 C22         3.7695    5.1363   -6.0819 C.ar      1 <0>        -0.1445
     32 C23         3.3204    5.4651   -7.3445 C.ar      1 <0>         0.1014
     33 N6          2.1784    4.9890   -7.8021 N.ar      1 <0>        -0.4785
     34 C24         1.4184    4.1844   -7.0841 C.ar      1 <0>         0.1004
     35 C25         1.7960    3.8004   -5.8138 C.ar      1 <0>        -0.1418
     36 H1         -1.2816    1.7681   -0.3906 H         1 <0>         0.1373
     37 H2          0.7366    3.1447   -0.6648 H         1 <0>         0.1260
     38 H3          3.1617   -0.3873   -0.4682 H         1 <0>         0.1465
     39 H4         -1.0923   -0.6724   -0.1627 H         1 <0>         0.1336
     40 H5          0.5374   -2.5501    0.4133 H         1 <0>         0.4128
     41 H6          1.4402   -4.5795   -0.3284 H         1 <0>         0.4126
     42 H7          4.6376   -3.2609   -1.0214 H         1 <0>         0.1446
     43 H8          6.4741   -4.4863   -2.1085 H         1 <0>         0.1411
     44 H9          6.0588   -6.6955   -3.1110 H         1 <0>         0.1422
     45 H10         1.9658   -6.4719   -1.9362 H         1 <0>         0.1381
     46 H11         4.0848    1.8391    1.1900 H         1 <0>         0.1698
     47 H12         6.1072    3.2393    0.8660 H         1 <0>         0.1856
     48 H13         5.3506    5.0028   -3.7171 H         1 <0>         0.1671
     49 H14         4.7051    5.5302   -5.7133 H         1 <0>         0.1431
     50 H15         3.9116    6.1211   -7.9662 H         1 <0>         0.1630
     51 H16         0.4907    3.8178   -7.4980 H         1 <0>         0.1610
     52 H17         1.1713    3.1377   -5.2333 H         1 <0>         0.1417
@<TRIPOS>BOND
     1    1    6 ar
     2    1    2 ar
     3    1   36 1
     4    2    3 ar
     5    2   37 1
     6    3    4 ar
     7    3   21 1
     8    4    5 ar
     9    4   38 1
    10    5    6 ar
    11    5    7 1
    12    6   39 1
    13    7    8 am
    14    7   40 1
    15    8    9 2
    16    8   10 am
    17   10   11 1
    18   10   41 1
    19   11   16 ar
    20   11   12 ar
    21   12   13 ar
    22   12   42 1
    23   13   14 ar
    24   13   43 1
    25   14   15 ar
    26   14   44 1
    27   15   16 ar
    28   15   17 1
    29   16   45 1
    30   17   18 1
    31   17   19 1
    32   17   20 1
    33   21   26 1
    34   21   22 2
    35   22   23 1
    36   22   46 1
    37   23   24 2
    38   23   47 1
    39   24   25 1
    40   25   29 2
    41   25   26 1
    42   26   27 1
    43   27   28 2
    44   28   29 1
    45   28   30 1
    46   29   48 1
    47   30   35 ar
    48   30   31 ar
    49   31   32 ar
    50   31   49 1
    51   32   33 ar
    52   32   50 1
    53   33   34 ar
    54   34   35 ar
    55   34   51 1
    56   35   52 1
@<TRIPOS>MOLECULE
CHEMBL1086871
   66    72     0     0     0
SMALL
USER_CHARGES

@<TRIPOS>ATOM
      1 C1         -0.0167    1.3782    0.0096 C.ar      1 <0>        -0.0987
      2 C2          1.1666    2.0886    0.0021 C.ar      1 <0>        -0.1112
      3 C3          2.3864    1.4109   -0.0132 C.ar      1 <0>         0.0170
      4 C4          2.4039    0.0163   -0.0209 C.ar      1 <0>        -0.1248
      5 C5          1.2113   -0.6868   -0.0132 C.ar      1 <0>         0.1083
      6 C6          0.0021   -0.0041    0.0020 C.ar      1 <0>        -0.1412
      7 O1          1.2239   -2.0458   -0.0211 O.3       1 <0>        -0.4990
      8 C7          3.6571    2.1694   -0.0217 C.2       1 <0>        -0.1782
      9 C8          4.1170    3.0191   -1.0471 C.2       1 <0>         0.1678
     10 N1          5.2869    3.5130   -0.6897 N.2       1 <0>        -0.2908
     11 N2          5.6322    3.0102    0.5693 N.pl3     1 <0>        -0.2997
     12 C9          4.6243    2.1818    0.9902 C.2       1 <0>         0.2799
     13 N3          4.6945    1.5653    2.1741 N.2       1 <0>        -0.4548
     14 C10         5.7256    1.7338    2.9723 C.2       1 <0>         0.1844
     15 C11         6.7800    2.5685    2.5971 C.2       1 <0>        -0.2079
     16 C12         6.7290    3.2085    1.3741 C.2       1 <0>         0.2397
     17 C13         7.8243    4.0998    0.9460 C.ar      1 <0>        -0.1154
     18 C14         7.5926    5.4693    0.7902 C.ar      1 <0>        -0.0202
     19 C15         8.6170    6.2982    0.3909 C.ar      1 <0>        -0.1805
     20 C16         9.8816    5.7738    0.1422 C.ar      1 <0>         0.2195
     21 C17        10.1157    4.4110    0.2963 C.ar      1 <0>        -0.1975
     22 C18         9.0972    3.5773    0.7009 C.ar      1 <0>        -0.0314
     23 N4         10.9157    6.6154   -0.2625 N.pl3     1 <0>        -0.7404
     24 C19        12.2479    6.0650   -0.5248 C.3       1 <0>         0.1438
     25 H1         12.4484    5.2480    0.1682 H         1 <0>         0.1177
     26 C20        12.3142    5.5458   -1.9629 C.3       1 <0>        -0.0318
     27 N5         13.3557    6.2590   -2.7061 N.4       1 <0>        -0.3736
     28 C21        14.6690    6.0342   -2.0975 C.3       1 <0>        -0.0100
     29 C22        14.6809    6.5696   -0.6639 C.3       1 <0>        -0.1355
     30 C23        13.3031    7.1640   -0.3432 C.3       1 <0>        -0.1081
     31 C24        13.0153    8.2828   -1.3531 C.3       1 <0>        -0.1382
     32 C25        13.0548    7.6911   -2.7698 C.3       1 <0>        -0.0075
     33 C26         3.4055    3.3095   -2.3151 C.ar      1 <0>         0.0222
     34 C27         2.6382    2.3277   -2.9492 C.ar      1 <0>        -0.1363
     35 C28         1.9926    2.6404   -4.1277 C.ar      1 <0>         0.1056
     36 N6          2.0924    3.8454   -4.6554 N.ar      1 <0>        -0.4741
     37 C29         2.8058    4.8000   -4.0894 C.ar      1 <0>         0.0997
     38 C30         3.4788    4.5743   -2.9064 C.ar      1 <0>        -0.1433
     39 H2         -0.9600    1.9038    0.0260 H         1 <0>         0.1296
     40 H3          1.1485    3.1685    0.0078 H         1 <0>         0.1203
     41 H4          3.3449   -0.5135   -0.0331 H         1 <0>         0.1240
     42 H5         -0.9269   -0.5549    0.0079 H         1 <0>         0.1303
     43 H6          1.2362   -2.4441    0.8599 H         1 <0>         0.3924
     44 H7          5.7569    1.2239    3.9238 H         1 <0>         0.1868
     45 H8          7.6271    2.7077    3.2524 H         1 <0>         0.1706
     46 H9          6.6110    5.8768    0.9824 H         1 <0>         0.1277
     47 H10         8.4387    7.3565    0.2703 H         1 <0>         0.1307
     48 H11        11.0984    4.0072    0.1021 H         1 <0>         0.1252
     49 H12         9.2806    2.5201    0.8242 H         1 <0>         0.1317
     50 H13        10.7537    7.5656   -0.3706 H         1 <0>         0.4067
     51 H14        12.5427    4.4801   -1.9524 H         1 <0>         0.1351
     52 H15        11.3512    5.7028   -2.4488 H         1 <0>         0.1365
     53 H16        14.8844    4.9658   -2.0864 H         1 <0>         0.1321
     54 H17        15.4314    6.5490   -2.6822 H         1 <0>         0.1329
     55 H18        14.8954    5.7553    0.0283 H         1 <0>         0.1037
     56 H19        15.4434    7.3427   -0.5690 H         1 <0>         0.1072
     57 H20        13.2817    7.5430    0.6785 H         1 <0>         0.1248
     58 H21        12.0278    8.7028   -1.1614 H         1 <0>         0.0966
     59 H22        13.7707    9.0629   -1.2591 H         1 <0>         0.1070
     60 H23        13.8257    8.1971   -3.3510 H         1 <0>         0.1329
     61 H24        12.0876    7.8364   -3.2510 H         1 <0>         0.1294
     62 H25         2.5525    1.3390   -2.5230 H         1 <0>         0.1411
     63 H26         1.3979    1.8885   -4.6251 H         1 <0>         0.1635
     64 H27         2.8600    5.7725   -4.5560 H         1 <0>         0.1606
     65 H28         4.0569    5.3618   -2.4459 H         1 <0>         0.1372
     66 H29        13.3817    5.8960   -3.6472 H         1 <0>         0.4280
@<TRIPOS>BOND
     1    1    6 ar
     2    1    2 ar
     3    1   39 1
     4    2    3 ar
     5    2   40 1
     6    3    4 ar
     7    3    8 1
     8    4    5 ar
     9    4   41 1
    10    5    6 ar
    11    5    7 1
    12    6   42 1
    13    7   43 1
    14    8   12 2
    15    8    9 1
    16    9   10 2
    17    9   33 1
    18   10   11 1
    19   11   16 1
    20   11   12 1
    21   12   13 1
    22   13   14 2
    23   14   15 1
    24   14   44 1
    25   15   16 2
    26   15   45 1
    27   16   17 1
    28   17   22 ar
    29   17   18 ar
    30   18   19 ar
    31   18   46 1
    32   19   20 ar
    33   19   47 1
    34   20   21 ar
    35   20   23 1
    36   21   22 ar
    37   21   48 1
    38   22   49 1
    39   23   24 1
    40   23   50 1
    41   24   25 1
    42   24   30 1
    43   24   26 1
    44   26   27 1
    45   26   51 1
    46   26   52 1
    47   27   32 1
    48   27   28 1
    49   27   66 1
    50   28   29 1
    51   28   53 1
    52   28   54 1
    53   29   30 1
    54   29   55 1
    55   29   56 1
    56   30   31 1
    57   30   57 1
    58   31   32 1
    59   31   58 1
    60   31   59 1
    61   32   60 1
    62   32   61 1
    63   33   38 ar
    64   33   34 ar
    65   34   35 ar
    66   34   62 1
    67   35   36 ar
    68   35   63 1
    69   36   37 ar
    70   37   38 ar
    71   37   64 1
    72   38   65 1
@<TRIPOS>MOLECULE
CHEMBL1087001
   63    69     0     0     0
SMALL
USER_CHARGES

@<TRIPOS>ATOM
      1 C1         -0.1052    2.0662    0.1998 C.3       1 <0>        -0.1262
      2 C2          0.0460    0.5755    0.0391 C.ar      1 <0>         0.0081
      3 C3          0.1197    0.0218   -1.2198 C.ar      1 <0>        -0.1862
      4 C4          0.2593   -1.3542   -1.3691 C.ar      1 <0>         0.2438
      5 C5          0.3250   -2.1759   -0.2479 C.ar      1 <0>        -0.1887
      6 C6          0.2519   -1.6290    1.0135 C.ar      1 <0>        -0.0207
      7 C7          0.1174   -0.2461    1.1672 C.ar      1 <0>        -0.1147
      8 C8          0.0444    0.3441    2.5176 C.2       1 <0>         0.2437
      9 C9          1.1229    1.0258    3.0468 C.2       1 <0>        -0.2082
     10 C10         1.0202    1.5718    4.3276 C.2       1 <0>         0.1832
     11 N1         -0.0893    1.4385    5.0203 N.2       1 <0>        -0.4533
     12 C11        -1.1431    0.7824    4.5248 C.2       1 <0>         0.2782
     13 N2         -1.1003    0.2308    3.2705 N.pl3     1 <0>        -0.2996
     14 N3         -2.3341   -0.3788    3.0193 N.2       1 <0>        -0.2885
     15 C12        -3.1198   -0.2134    4.0661 C.2       1 <0>         0.1686
     16 C13        -2.4116    0.5063    5.0487 C.2       1 <0>        -0.1771
     17 C14        -2.9194    0.9094    6.3790 C.ar      1 <0>         0.0174
     18 C15        -3.1938   -0.0586    7.3466 C.ar      1 <0>        -0.1105
     19 C16        -3.6671    0.3205    8.5859 C.ar      1 <0>        -0.0990
     20 C17        -3.8710    1.6577    8.8734 C.ar      1 <0>        -0.1410
     21 C18        -3.6012    2.6273    7.9171 C.ar      1 <0>         0.1083
     22 C19        -3.1199    2.2578    6.6722 C.ar      1 <0>        -0.1246
     23 O1         -3.8038    3.9400    8.2048 O.3       1 <0>        -0.4988
     24 C20        -4.5105   -0.7119    4.1922 C.ar      1 <0>         0.0228
     25 C21        -5.5065    0.0779    4.7744 C.ar      1 <0>        -0.1362
     26 C22        -6.7876   -0.4248    4.8719 C.ar      1 <0>         0.1062
     27 N4         -7.0772   -1.6319    4.4249 N.ar      1 <0>        -0.4740
     28 C23        -6.1673   -2.4089    3.8692 C.ar      1 <0>         0.1008
     29 C24        -4.8630   -1.9823    3.7268 C.ar      1 <0>        -0.1434
     30 N5          0.3331   -1.9111   -2.6442 N.pl3     1 <0>        -0.6459
     31 C25         0.2857   -1.1884   -3.9333 C.3       1 <0>         0.0924
     32 C26         0.3589   -2.2999   -5.0258 C.3       1 <0>         0.0203
     33 H1         -0.0121   -2.0296   -6.0144 H         1 <0>         0.1881
     34 C27        -0.4064   -3.4511   -4.2798 C.3       1 <0>        -0.1519
     35 C28         0.4824   -3.3570   -2.9842 C.3       1 <0>         0.1312
     36 H2          0.2558   -4.0636   -2.1858 H         1 <0>         0.1611
     37 C29         1.9000   -3.4523   -3.6285 C.3       1 <0>        -0.0181
     38 N6          1.7749   -2.7815   -4.9611 N.4       1 <0>        -0.5232
     39 H3          0.8808    2.5283    0.2486 H         1 <0>         0.0855
     40 H4         -0.6538    2.4697   -0.6513 H         1 <0>         0.0766
     41 H5         -0.6520    2.2790    1.1185 H         1 <0>         0.0658
     42 H6          0.0686    0.6566   -2.0921 H         1 <0>         0.1279
     43 H7          0.4330   -3.2438   -0.3674 H         1 <0>         0.1276
     44 H8          0.3022   -2.2673    1.8832 H         1 <0>         0.1294
     45 H9          2.0341    1.1346    2.4773 H         1 <0>         0.1690
     46 H10         1.8571    2.1066    4.7519 H         1 <0>         0.1864
     47 H11        -3.0360   -1.1038    7.1252 H         1 <0>         0.1200
     48 H12        -3.8794   -0.4294    9.3336 H         1 <0>         0.1293
     49 H13        -4.2417    1.9488    9.8452 H         1 <0>         0.1302
     50 H14        -2.9048    3.0114    5.9291 H         1 <0>         0.1239
     51 H15        -3.0330    4.3826    8.5856 H         1 <0>         0.3921
     52 H16        -5.2764    1.0668    5.1427 H         1 <0>         0.1399
     53 H17        -7.5636    0.1776    5.3204 H         1 <0>         0.1636
     54 H18        -6.4482   -3.3904    3.5168 H         1 <0>         0.1609
     55 H19        -4.1244   -2.6217    3.2664 H         1 <0>         0.1366
     56 H20        -0.6476   -0.6322   -4.0213 H         1 <0>         0.1085
     57 H21         1.1382   -0.5148   -4.0211 H         1 <0>         0.0891
     58 H22        -1.4498   -3.1998   -4.0894 H         1 <0>         0.1294
     59 H23        -0.3029   -4.4121   -4.7837 H         1 <0>         0.1162
     60 H24         2.6314   -2.9280   -3.0135 H         1 <0>         0.1383
     61 H25         2.1890   -4.4956   -3.7550 H         1 <0>         0.1441
     62 H26         1.9510   -3.4433   -5.7022 H         1 <0>         0.4323
     63 H27         2.4109   -2.0013   -5.0319 H         1 <0>         0.4328
@<TRIPOS>BOND
     1    1    2 1
     2    1   39 1
     3    1   40 1
     4    1   41 1
     5    2    7 ar
     6    2    3 ar
     7    3    4 ar
     8    3   42 1
     9    4    5 ar
    10    4   30 1
    11    5    6 ar
    12    5   43 1
    13    6    7 ar
    14    6   44 1
    15    7    8 1
    16    8   13 1
    17    8    9 2
    18    9   10 1
    19    9   45 1
    20   10   11 2
    21   10   46 1
    22   11   12 1
    23   12   16 2
    24   12   13 1
    25   13   14 1
    26   14   15 2
    27   15   16 1
    28   15   24 1
    29   16   17 1
    30   17   22 ar
    31   17   18 ar
    32   18   19 ar
    33   18   47 1
    34   19   20 ar
    35   19   48 1
    36   20   21 ar
    37   20   49 1
    38   21   22 ar
    39   21   23 1
    40   22   50 1
    41   23   51 1
    42   24   29 ar
    43   24   25 ar
    44   25   26 ar
    45   25   52 1
    46   26   27 ar
    47   26   53 1
    48   27   28 ar
    49   28   29 ar
    50   28   54 1
    51   29   55 1
    52   30   35 1
    53   30   31 1
    54   31   32 1
    55   31   56 1
    56   31   57 1
    57   32   33 1
    58   32   38 1
    59   32   34 1
    60   34   35 1
    61   34   58 1
    62   34   59 1
    63   35   36 1
    64   35   37 1
    65   37   38 1
    66   37   60 1
    67   37   61 1
    68   38   62 1
    69   38   63 1
@<TRIPOS>MOLECULE
CHEMBL570873
   54    59     0     0     0
SMALL
USER_CHARGES

@<TRIPOS>ATOM
      1 C1         -0.0178    1.4648    0.0101 C.3       1 <0>        -0.0069
      2 N1          0.0021   -0.0041    0.0020 N.3       1 <0>        -0.4836
      3 C2         -1.3685   -0.5564    0.1656 C.3       1 <0>         0.0608
      4 C3         -2.0841    0.2638    1.2377 C.3       1 <0>        -0.0901
      5 C4         -1.1887    0.5005    2.4261 C.2       1 <0>        -0.1872
      6 C5         -1.7293    1.1015    3.5758 C.2       1 <0>         0.1812
      7 N2         -0.9978    1.3438    4.6456 N.2       1 <0>        -0.4362
      8 C6          0.2972    1.0051    4.6185 C.2       1 <0>         0.2654
      9 C7          1.2974    1.1371    5.5696 C.2       1 <0>        -0.1801
     10 C8          2.4797    0.6111    5.0044 C.2       1 <0>         0.1671
     11 N3          2.2097    0.1839    3.7808 N.2       1 <0>        -0.2871
     12 N4          0.8687    0.4099    3.5081 N.pl3     1 <0>        -0.2927
     13 C9          0.1190    0.1457    2.4022 C.2       1 <0>         0.1791
     14 C10         0.7187   -0.5348    1.1952 C.3       1 <0>         0.1017
     15 C11         0.2591   -2.0156    1.2674 C.3       1 <0>        -0.0984
     16 C12        -1.1566   -2.0021    0.6523 C.3       1 <0>        -0.0882
     17 C13        -1.2334   -2.9757   -0.5254 C.3       1 <0>         0.0858
     18 O1         -1.1511   -4.3174   -0.0404 O.3       1 <0>        -0.5746
     19 C14         3.8029    0.5479    5.6703 C.ar      1 <0>         0.0205
     20 C15         4.2146    1.5560    6.5472 C.ar      1 <0>        -0.1385
     21 C16         5.4539    1.4578    7.1454 C.ar      1 <0>         0.1051
     22 N5          6.2454    0.4314    6.8989 N.ar      1 <0>        -0.4742
     23 C17         5.8953   -0.5406    6.0785 C.ar      1 <0>         0.1017
     24 C18         4.6708   -0.5245    5.4430 C.ar      1 <0>        -0.1408
     25 C19         1.1532    1.7201    6.9225 C.ar      1 <0>         0.0272
     26 C20         0.8340    3.0704    7.0724 C.ar      1 <0>        -0.0962
     27 C21         0.6997    3.6111    8.3348 C.ar      1 <0>        -0.0925
     28 C22         0.8810    2.8182    9.4541 C.ar      1 <0>        -0.0625
     29 C23         1.1993    1.4732    9.3138 C.ar      1 <0>         0.1213
     30 C24         1.3300    0.9204    8.0511 C.ar      1 <0>        -0.1165
     31 O2          1.3768    0.6984   10.4164 O.3       1 <0>        -0.4853
     32 Cl1         0.7108    3.5063   11.0388 Cl        1 <0>        -0.0558
     33 H1          1.0047    1.8421    0.0024 H         1 <0>         0.0727
     34 H2         -0.5450    1.8259   -0.8730 H         1 <0>         0.0827
     35 H3         -0.5280    1.8163    0.9069 H         1 <0>         0.0438
     36 H4         -1.9124   -0.5384   -0.7789 H         1 <0>         0.1162
     37 H5         -2.3796    1.2242    0.8154 H         1 <0>         0.0953
     38 H6         -2.9756   -0.2726    1.5627 H         1 <0>         0.0982
     39 H7         -2.7745    1.3731    3.5831 H         1 <0>         0.1805
     40 H8          1.8000   -0.4131    1.1323 H         1 <0>         0.1330
     41 H9          0.9237   -2.6504    0.6815 H         1 <0>         0.0935
     42 H10         0.2219   -2.3535    2.3030 H         1 <0>         0.0730
     43 H11        -1.8996   -2.2601    1.4068 H         1 <0>         0.0903
     44 H12        -2.1782   -2.8366   -1.0508 H         1 <0>         0.0490
     45 H13        -0.4061   -2.7851   -1.2090 H         1 <0>         0.0564
     46 H14        -1.1935   -4.9897   -0.7341 H         1 <0>         0.3835
     47 H15         3.5721    2.3994    6.7529 H         1 <0>         0.1386
     48 H16         5.7807    2.2316    7.8242 H         1 <0>         0.1622
     49 H17         6.5746   -1.3622    5.9052 H         1 <0>         0.1622
     50 H18         4.3887   -1.3260    4.7764 H         1 <0>         0.1403
     51 H19         0.6926    3.6921    6.2006 H         1 <0>         0.1317
     52 H20         0.4527    4.6562    8.4495 H         1 <0>         0.1402
     53 H21         1.5726   -0.1262    7.9406 H         1 <0>         0.1340
     54 H22         0.5685    0.2712   10.7312 H         1 <0>         0.3936
@<TRIPOS>BOND
     1    1    2 1
     2    1   33 1
     3    1   34 1
     4    1   35 1
     5    2   14 1
     6    2    3 1
     7    3   16 1
     8    3    4 1
     9    3   36 1
    10    4    5 1
    11    4   37 1
    12    4   38 1
    13    5   13 2
    14    5    6 1
    15    6    7 2
    16    6   39 1
    17    7    8 1
    18    8   12 1
    19    8    9 2
    20    9   10 1
    21    9   25 1
    22   10   11 2
    23   10   19 1
    24   11   12 1
    25   12   13 1
    26   13   14 1
    27   14   15 1
    28   14   40 1
    29   15   16 1
    30   15   41 1
    31   15   42 1
    32   16   17 1
    33   16   43 1
    34   17   18 1
    35   17   44 1
    36   17   45 1
    37   18   46 1
    38   19   24 ar
    39   19   20 ar
    40   20   21 ar
    41   20   47 1
    42   21   22 ar
    43   21   48 1
    44   22   23 ar
    45   23   24 ar
    46   23   49 1
    47   24   50 1
    48   25   30 ar
    49   25   26 ar
    50   26   27 ar
    51   26   51 1
    52   27   28 ar
    53   27   52 1
    54   28   29 ar
    55   28   32 1
    56   29   30 ar
    57   29   31 1
    58   30   53 1
    59   31   54 1
@<TRIPOS>MOLECULE
CHEMBL570873__1
   54    59     0     0     0
SMALL
USER_CHARGES

@<TRIPOS>ATOM
      1 C1         -0.0178    1.4648    0.0101 C.3       1 <0>        -0.0066
      2 N1          0.0021   -0.0041    0.0020 N.3       1 <0>        -0.4824
      3 C2         -1.3685   -0.5564    0.1656 C.3       1 <0>         0.0628
      4 C3         -2.0841    0.2638    1.2377 C.3       1 <0>        -0.0993
      5 C4         -1.1887    0.5005    2.4261 C.2       1 <0>        -0.1889
      6 C5         -1.7293    1.1015    3.5758 C.2       1 <0>         0.1791
      7 N2         -0.9978    1.3438    4.6456 N.2       1 <0>        -0.4352
      8 C6          0.2972    1.0051    4.6185 C.2       1 <0>         0.2644
      9 C7          1.2974    1.1371    5.5696 C.2       1 <0>        -0.1792
     10 C8          2.4797    0.6111    5.0044 C.2       1 <0>         0.1676
     11 N3          2.2097    0.1839    3.7808 N.2       1 <0>        -0.2861
     12 N4          0.8687    0.4099    3.5081 N.pl3     1 <0>        -0.2925
     13 C9          0.1190    0.1457    2.4022 C.2       1 <0>         0.1818
     14 C10         0.7187   -0.5348    1.1952 C.3       1 <0>         0.1008
     15 C11         0.2591   -2.0156    1.2674 C.3       1 <0>        -0.1001
     16 C12        -1.1566   -2.0021    0.6523 C.3       1 <0>        -0.0888
     17 C13        -2.1996   -2.3643    1.7114 C.3       1 <0>         0.0798
     18 O1         -2.0606   -3.7418    2.0652 O.3       1 <0>        -0.5705
     19 C14         3.8029    0.5479    5.6703 C.ar      1 <0>         0.0200
     20 C15         4.2146    1.5560    6.5472 C.ar      1 <0>        -0.1384
     21 C16         5.4539    1.4578    7.1454 C.ar      1 <0>         0.1051
     22 N5          6.2454    0.4314    6.8989 N.ar      1 <0>        -0.4740
     23 C17         5.8953   -0.5406    6.0785 C.ar      1 <0>         0.1019
     24 C18         4.6708   -0.5245    5.4430 C.ar      1 <0>        -0.1406
     25 C19         1.1532    1.7201    6.9225 C.ar      1 <0>         0.0267
     26 C20         0.8340    3.0704    7.0724 C.ar      1 <0>        -0.0961
     27 C21         0.6997    3.6111    8.3348 C.ar      1 <0>        -0.0924
     28 C22         0.8810    2.8182    9.4541 C.ar      1 <0>        -0.0624
     29 C23         1.1993    1.4732    9.3138 C.ar      1 <0>         0.1213
     30 C24         1.3300    0.9204    8.0511 C.ar      1 <0>        -0.1164
     31 O2          1.3768    0.6984   10.4164 O.3       1 <0>        -0.4852
     32 Cl1         0.7108    3.5063   11.0388 Cl        1 <0>        -0.0556
     33 H1          1.0047    1.8421    0.0024 H         1 <0>         0.0730
     34 H2         -0.5450    1.8259   -0.8730 H         1 <0>         0.0832
     35 H3         -0.5280    1.8163    0.9069 H         1 <0>         0.0435
     36 H4         -1.9124   -0.5384   -0.7789 H         1 <0>         0.1186
     37 H5         -2.3796    1.2242    0.8154 H         1 <0>         0.0952
     38 H6         -2.9756   -0.2726    1.5627 H         1 <0>         0.0990
     39 H7         -2.7745    1.3731    3.5831 H         1 <0>         0.1801
     40 H8          1.8000   -0.4131    1.1323 H         1 <0>         0.1332
     41 H9          0.9237   -2.6504    0.6815 H         1 <0>         0.0926
     42 H10         0.2219   -2.3535    2.3030 H         1 <0>         0.0767
     43 H11        -1.2113   -2.6957   -0.1868 H         1 <0>         0.1002
     44 H12        -2.0495   -1.7451    2.5958 H         1 <0>         0.0450
     45 H13        -3.1987   -2.1909    1.3117 H         1 <0>         0.0535
     46 H14        -2.6915   -4.0417    2.7339 H         1 <0>         0.3829
     47 H15         3.5721    2.3994    6.7529 H         1 <0>         0.1385
     48 H16         5.7807    2.2316    7.8242 H         1 <0>         0.1622
     49 H17         6.5746   -1.3622    5.9052 H         1 <0>         0.1624
     50 H18         4.3887   -1.3260    4.7764 H         1 <0>         0.1403
     51 H19         0.6926    3.6921    6.2006 H         1 <0>         0.1317
     52 H20         0.4527    4.6562    8.4495 H         1 <0>         0.1403
     53 H21         1.5726   -0.1262    7.9406 H         1 <0>         0.1339
     54 H22         0.5685    0.2712   10.7312 H         1 <0>         0.3935
@<TRIPOS>BOND
     1    1    2 1
     2    1   33 1
     3    1   34 1
     4    1   35 1
     5    2   14 1
     6    2    3 1
     7    3   16 1
     8    3    4 1
     9    3   36 1
    10    4    5 1
    11    4   37 1
    12    4   38 1
    13    5   13 2
    14    5    6 1
    15    6    7 2
    16    6   39 1
    17    7    8 1
    18    8   12 1
    19    8    9 2
    20    9   10 1
    21    9   25 1
    22   10   11 2
    23   10   19 1
    24   11   12 1
    25   12   13 1
    26   13   14 1
    27   14   15 1
    28   14   40 1
    29   15   16 1
    30   15   41 1
    31   15   42 1
    32   16   17 1
    33   16   43 1
    34   17   18 1
    35   17   44 1
    36   17   45 1
    37   18   46 1
    38   19   24 ar
    39   19   20 ar
    40   20   21 ar
    41   20   47 1
    42   21   22 ar
    43   21   48 1
    44   22   23 ar
    45   23   24 ar
    46   23   49 1
    47   24   50 1
    48   25   30 ar
    49   25   26 ar
    50   26   27 ar
    51   26   51 1
    52   27   28 ar
    53   27   52 1
    54   28   29 ar
    55   28   32 1
    56   29   30 ar
    57   29   31 1
    58   30   53 1
    59   31   54 1
@<TRIPOS>MOLECULE
CHEMBL570873__2
   54    59     0     0     0
SMALL
USER_CHARGES

@<TRIPOS>ATOM
      1 C1         -0.0178    1.4648    0.0101 C.3       1 <0>         0.0102
      2 N1          0.0021   -0.0041    0.0020 N.3       1 <0>        -0.4964
      3 C2         -1.3685   -0.5564    0.1656 C.3       1 <0>         0.0636
      4 C3         -1.3348   -2.0309   -0.2330 C.3       1 <0>        -0.0574
      5 C4         -0.1355   -2.7248    0.3591 C.2       1 <0>        -0.1734
      6 C5         -0.0244   -4.1198    0.2295 C.2       1 <0>         0.1789
      7 N2          1.0036   -4.7858    0.7173 N.2       1 <0>        -0.4380
      8 C6          1.9634   -4.0979    1.3481 C.2       1 <0>         0.2684
      9 C7          3.1423   -4.5128    1.9485 C.2       1 <0>        -0.1820
     10 C8          3.7763   -3.3592    2.4595 C.2       1 <0>         0.1660
     11 N3          3.0228   -2.3058    2.1849 N.2       1 <0>        -0.2898
     12 N4          1.8922   -2.7245    1.4993 N.pl3     1 <0>        -0.2941
     13 C9          0.8291   -2.0289    1.0085 C.2       1 <0>         0.2168
     14 C10         0.7187   -0.5348    1.1952 C.3       1 <0>         0.1019
     15 C11        -0.2937   -0.3226    2.3525 C.3       1 <0>        -0.1324
     16 C12        -1.6743   -0.4165    1.6685 C.3       1 <0>        -0.1179
     17 C13        -2.4345   -1.6449    2.1725 C.3       1 <0>         0.0832
     18 O1         -2.8103   -1.4458    3.5368 O.3       1 <0>        -0.5727
     19 C14         5.0699   -3.3321    3.1836 C.ar      1 <0>         0.0216
     20 C15         5.4391   -4.3790    4.0337 C.ar      1 <0>        -0.1386
     21 C16         6.6518   -4.3135    4.6882 C.ar      1 <0>         0.1050
     22 N5          7.4570   -3.2820    4.5206 N.ar      1 <0>        -0.4747
     23 C17         7.1467   -2.2740    3.7280 C.ar      1 <0>         0.1014
     24 C18         5.9563   -2.2618    3.0307 C.ar      1 <0>        -0.1414
     25 C19         3.6419   -5.9032    2.0374 C.ar      1 <0>         0.0284
     26 C20         2.9341   -6.8557    2.7719 C.ar      1 <0>        -0.0963
     27 C21         3.4020   -8.1513    2.8527 C.ar      1 <0>        -0.0927
     28 C22         4.5723   -8.5099    2.2075 C.ar      1 <0>        -0.0629
     29 C23         5.2833   -7.5678    1.4747 C.ar      1 <0>         0.1210
     30 C24         4.8183   -6.2669    1.3828 C.ar      1 <0>        -0.1166
     31 O2          6.4327   -7.9247    0.8430 O.3       1 <0>        -0.4855
     32 Cl1         5.1545  -10.1418    2.3146 Cl        1 <0>        -0.0564
     33 H1          1.0047    1.8421    0.0024 H         1 <0>         0.0753
     34 H2         -0.5450    1.8259   -0.8730 H         1 <0>         0.0805
     35 H3         -0.5280    1.8163    0.9069 H         1 <0>         0.0399
     36 H4         -2.0887    0.0016   -0.4327 H         1 <0>         0.1113
     37 H5         -2.2422   -2.5186    0.1232 H         1 <0>         0.0939
     38 H6         -1.2918   -2.1069   -1.3195 H         1 <0>         0.0977
     39 H7         -0.8042   -4.6623   -0.2843 H         1 <0>         0.1805
     40 H8          1.6831   -0.0549    1.3619 H         1 <0>         0.1287
     41 H9         -0.1855   -1.1059    3.1026 H         1 <0>         0.0799
     42 H10        -0.1573    0.6604    2.8034 H         1 <0>         0.0855
     43 H11        -2.2513    0.4893    1.8546 H         1 <0>         0.0933
     44 H12        -3.3288   -1.7924    1.5671 H         1 <0>         0.0541
     45 H13        -1.7950   -2.5243    2.0964 H         1 <0>         0.0478
     46 H14        -3.2971   -2.1868    3.9228 H         1 <0>         0.3828
     47 H15         4.7845   -5.2261    4.1761 H         1 <0>         0.1387
     48 H16         6.9458   -5.1174    5.3469 H         1 <0>         0.1620
     49 H17         7.8357   -1.4492    3.6203 H         1 <0>         0.1618
     50 H18         5.7109   -1.4357    2.3797 H         1 <0>         0.1397
     51 H19         2.0206   -6.5788    3.2771 H         1 <0>         0.1318
     52 H20         2.8533   -8.8875    3.4214 H         1 <0>         0.1399
     53 H21         5.3675   -5.5348    0.8094 H         1 <0>         0.1340
     54 H22         6.3026   -8.2404   -0.0617 H         1 <0>         0.3935
@<TRIPOS>BOND
     1    1    2 1
     2    1   33 1
     3    1   34 1
     4    1   35 1
     5    2   14 1
     6    2    3 1
     7    3   16 1
     8    3    4 1
     9    3   36 1
    10    4    5 1
    11    4   37 1
    12    4   38 1
    13    5   13 2
    14    5    6 1
    15    6    7 2
    16    6   39 1
    17    7    8 1
    18    8   12 1
    19    8    9 2
    20    9   10 1
    21    9   25 1
    22   10   11 2
    23   10   19 1
    24   11   12 1
    25   12   13 1
    26   13   14 1
    27   14   15 1
    28   14   40 1
    29   15   16 1
    30   15   41 1
    31   15   42 1
    32   16   17 1
    33   16   43 1
    34   17   18 1
    35   17   44 1
    36   17   45 1
    37   18   46 1
    38   19   24 ar
    39   19   20 ar
    40   20   21 ar
    41   20   47 1
    42   21   22 ar
    43   21   48 1
    44   22   23 ar
    45   23   24 ar
    46   23   49 1
    47   24   50 1
    48   25   30 ar
    49   25   26 ar
    50   26   27 ar
    51   26   51 1
    52   27   28 ar
    53   27   52 1
    54   28   29 ar
    55   28   32 1
    56   29   30 ar
    57   29   31 1
    58   30   53 1
    59   31   54 1
@<TRIPOS>MOLECULE
CHEMBL570873__3
   54    59     0     0     0
SMALL
USER_CHARGES

@<TRIPOS>ATOM
      1 C1         -0.2035    1.4018   -0.1893 C.3       1 <0>         0.0045
      2 N1         -0.1519   -0.0650   -0.1294 N.3       1 <0>        -0.4965
      3 C2         -1.4641   -0.6279    0.2845 C.3       1 <0>         0.0626
      4 C3         -1.4628   -2.1204   -0.0423 C.3       1 <0>        -0.0485
      5 C4         -0.1673   -2.7655    0.3768 C.2       1 <0>        -0.1714
      6 C5         -0.0473   -4.1636    0.2984 C.2       1 <0>         0.1811
      7 N2          1.0616   -4.7886    0.6416 N.2       1 <0>        -0.4390
      8 C6          2.0960   -4.0554    1.0715 C.2       1 <0>         0.2694
      9 C7          3.3665   -4.4218    1.4885 C.2       1 <0>        -0.1830
     10 C8          4.0494   -3.2344    1.8315 C.2       1 <0>         0.1655
     11 N3          3.2374   -2.2076    1.6343 N.2       1 <0>        -0.2907
     12 N4          2.0194   -2.6773    1.1657 N.pl3     1 <0>        -0.2942
     13 C9          0.8747   -2.0233    0.8238 C.2       1 <0>         0.2139
     14 C10         0.7625   -0.5232    0.9535 C.3       1 <0>         0.1033
     15 C11        -0.0509   -0.2663    2.2503 C.3       1 <0>        -0.1304
     16 C12        -1.5225   -0.4152    1.8087 C.3       1 <0>        -0.1195
     17 C13        -2.3072    0.8563    2.1380 C.3       1 <0>         0.0784
     18 O1         -2.4577    0.9696    3.5545 O.3       1 <0>        -0.5717
     19 C14         5.4432   -3.1515    2.3303 C.ar      1 <0>         0.0221
     20 C15         5.9705   -4.1477    3.1574 C.ar      1 <0>        -0.1387
     21 C16         7.2723   -4.0312    3.5990 C.ar      1 <0>         0.1049
     22 N5          8.0156   -2.9982    3.2512 N.ar      1 <0>        -0.4749
     23 C17         7.5567   -2.0369    2.4727 C.ar      1 <0>         0.1011
     24 C18         6.2681   -2.0778    1.9815 C.ar      1 <0>        -0.1416
     25 C19         3.9054   -5.7985    1.5611 C.ar      1 <0>         0.0288
     26 C20         3.3494   -6.7220    2.4475 C.ar      1 <0>        -0.0962
     27 C21         3.8534   -8.0049    2.5127 C.ar      1 <0>        -0.0926
     28 C22         4.9100   -8.3792    1.7014 C.ar      1 <0>        -0.0630
     29 C23         5.4695   -7.4660    0.8167 C.ar      1 <0>         0.1208
     30 C24         4.9664   -6.1784    0.7398 C.ar      1 <0>        -0.1166
     31 O2          6.5076   -7.8384    0.0221 O.3       1 <0>        -0.4856
     32 Cl1         5.5386   -9.9950    1.7900 Cl        1 <0>        -0.0567
     33 H1          0.7580    1.7856   -0.5304 H         1 <0>         0.0766
     34 H2         -0.9848    1.7098   -0.8841 H         1 <0>         0.0791
     35 H3         -0.4220    1.7985    0.8022 H         1 <0>         0.0431
     36 H4         -2.2852   -0.1119   -0.2132 H         1 <0>         0.1091
     37 H5         -2.2883   -2.6020    0.4819 H         1 <0>         0.0935
     38 H6         -1.5969   -2.2516   -1.1160 H         1 <0>         0.0979
     39 H7         -0.8883   -4.7429   -0.0529 H         1 <0>         0.1809
     40 H8          1.7301   -0.0216    0.9354 H         1 <0>         0.1285
     41 H9          0.1966   -1.0083    3.0094 H         1 <0>         0.0765
     42 H10         0.1352    0.7404    2.6244 H         1 <0>         0.0868
     43 H11        -1.9778   -1.2784    2.2941 H         1 <0>         0.0943
     44 H12        -1.7678    1.7245    1.7593 H         1 <0>         0.0525
     45 H13        -3.2908    0.8074    1.6709 H         1 <0>         0.0513
     46 H14        -2.9469    1.7547    3.8365 H         1 <0>         0.3833
     47 H15         5.3675   -4.9958    3.4467 H         1 <0>         0.1388
     48 H16         7.6885   -4.7957    4.2384 H         1 <0>         0.1620
     49 H17         8.1998   -1.2090    2.2131 H         1 <0>         0.1616
     50 H18         5.9006   -1.2900    1.3407 H         1 <0>         0.1396
     51 H19         2.5251   -6.4326    3.0825 H         1 <0>         0.1321
     52 H20         3.4223   -8.7186    3.1990 H         1 <0>         0.1399
     53 H21         5.3974   -5.4690    0.0490 H         1 <0>         0.1339
     54 H22         6.2381   -8.2021   -0.8324 H         1 <0>         0.3933
@<TRIPOS>BOND
     1    1    2 1
     2    1   33 1
     3    1   34 1
     4    1   35 1
     5    2   14 1
     6    2    3 1
     7    3   16 1
     8    3    4 1
     9    3   36 1
    10    4    5 1
    11    4   37 1
    12    4   38 1
    13    5   13 2
    14    5    6 1
    15    6    7 2
    16    6   39 1
    17    7    8 1
    18    8   12 1
    19    8    9 2
    20    9   10 1
    21    9   25 1
    22   10   11 2
    23   10   19 1
    24   11   12 1
    25   12   13 1
    26   13   14 1
    27   14   15 1
    28   14   40 1
    29   15   16 1
    30   15   41 1
    31   15   42 1
    32   16   17 1
    33   16   43 1
    34   17   18 1
    35   17   44 1
    36   17   45 1
    37   18   46 1
    38   19   24 ar
    39   19   20 ar
    40   20   21 ar
    41   20   47 1
    42   21   22 ar
    43   21   48 1
    44   22   23 ar
    45   23   24 ar
    46   23   49 1
    47   24   50 1
    48   25   30 ar
    49   25   26 ar
    50   26   27 ar
    51   26   51 1
    52   27   28 ar
    53   27   52 1
    54   28   29 ar
    55   28   32 1
    56   29   30 ar
    57   29   31 1
    58   30   53 1
    59   31   54 1
@<TRIPOS>MOLECULE
CHEMBL410295
   71    77     0     0     0
SMALL
USER_CHARGES

@<TRIPOS>ATOM
      1 C1          0.5182    1.2656    0.0086 C.3       1 <0>        -0.1155
      2 C2          0.2506   -0.2166    0.0604 C.ar      1 <0>        -0.0497
      3 C3          0.2481   -0.9597   -1.1037 C.ar      1 <0>        -0.1186
      4 C4          0.0026   -2.3198   -1.0570 C.ar      1 <0>        -0.0884
      5 C5         -0.2415   -2.9401    0.1545 C.ar      1 <0>        -0.1186
      6 C6         -0.2408   -2.2025    1.3222 C.ar      1 <0>        -0.0496
      7 C7          0.0119   -0.8376    1.2794 C.ar      1 <0>         0.1132
      8 N1          0.0195   -0.0880    2.4621 N.am      1 <0>        -0.4628
      9 C8          1.1754    0.0671    3.1395 C.2       1 <0>         0.5876
     10 O1          2.2055   -0.4366    2.7329 O.2       1 <0>        -0.4766
     11 C9          1.1651    0.8564    4.3771 C.ar      1 <0>        -0.3314
     12 C10         2.3164    1.0650    5.1361 C.ar      1 <0>         0.2960
     13 N2          2.2205    1.7893    6.2384 N.ar      1 <0>        -0.5681
     14 C11         1.0592    2.3086    6.6198 C.ar      1 <0>         0.6153
     15 N3         -0.0593    2.1343    5.9278 N.ar      1 <0>        -0.5809
     16 C12        -0.0503    1.4225    4.8116 C.ar      1 <0>         0.4906
     17 N4         -1.1953    1.2203    4.0642 N.pl3     1 <0>        -0.4382
     18 C13        -1.1579    0.4842    2.9105 C.2       1 <0>         0.5183
     19 N5         -2.3621    0.4426    2.3823 N.2       1 <0>        -0.4645
     20 C14        -3.2306    1.1446    3.1528 C.ar      1 <0>         0.0828
     21 C15        -2.5030    1.6464    4.2441 C.ar      1 <0>         0.0493
     22 C16        -3.1402    2.4112    5.2088 C.ar      1 <0>        -0.0820
     23 C17        -4.4924    2.6647    5.1012 C.ar      1 <0>        -0.1037
     24 C18        -5.2191    2.1593    4.0338 C.ar      1 <0>        -0.1042
     25 C19        -4.5978    1.4166    3.0545 C.ar      1 <0>        -0.0679
     26 N6          1.0141    3.0568    7.7788 N.pl3     1 <0>        -0.6227
     27 C20         2.1976    3.3550    8.4664 C.ar      1 <0>         0.1197
     28 C21         3.3516    3.6665    7.7596 C.ar      1 <0>        -0.0547
     29 C22         4.5180    3.9609    8.4372 C.ar      1 <0>        -0.1652
     30 C23         4.5370    3.9455    9.8258 C.ar      1 <0>         0.1889
     31 C24         3.3829    3.6340   10.5327 C.ar      1 <0>        -0.1650
     32 C25         2.2152    3.3448    9.8549 C.ar      1 <0>        -0.0878
     33 N7          5.7192    4.2434   10.5127 N.pl3     1 <0>        -0.6448
     34 C26         5.7951    4.1201   11.9766 C.3       1 <0>         0.0998
     35 C27         7.0337    3.2905   12.3307 C.3       1 <0>        -0.0233
     36 N8          8.2199    3.8949   11.7112 N.4       1 <0>        -0.3839
     37 C28         8.1071    3.8319   10.2485 C.3       1 <0>        -0.0234
     38 C29         6.9233    4.6829    9.7908 C.3       1 <0>         0.0984
     39 C30         9.4200    3.1642   12.1398 C.3       1 <0>        -0.0472
     40 C31        -0.5079   -2.8791    2.6420 C.3       1 <0>        -0.1156
     41 H1          1.5892    1.4449    0.1025 H         1 <0>         0.0752
     42 H2          0.1648    1.6656   -0.9418 H         1 <0>         0.0779
     43 H3         -0.0059    1.7582    0.8276 H         1 <0>         0.0553
     44 H4          0.4377   -0.4780   -2.0516 H         1 <0>         0.1329
     45 H5          0.0011   -2.8987   -1.9688 H         1 <0>         0.1325
     46 H6         -0.4333   -4.0024    0.1877 H         1 <0>         0.1329
     47 H7          3.2634    0.6449    4.8311 H         1 <0>         0.1986
     48 H8         -2.5798    2.8074    6.0427 H         1 <0>         0.1350
     49 H9         -4.9880    3.2604    5.8535 H         1 <0>         0.1380
     50 H10        -6.2769    2.3646    3.9605 H         1 <0>         0.1394
     51 H11        -5.1692    1.0284    2.2243 H         1 <0>         0.1404
     52 H12         0.1630    3.3761    8.1171 H         1 <0>         0.4293
     53 H13         3.3369    3.6781    6.6797 H         1 <0>         0.1348
     54 H14         5.4156    4.2027    7.8875 H         1 <0>         0.1280
     55 H15         3.3977    3.6218   11.6125 H         1 <0>         0.1290
     56 H16         1.3165    3.1070   10.4046 H         1 <0>         0.1330
     57 H17         5.8776    5.1107   12.4239 H         1 <0>         0.0880
     58 H18         4.9008    3.6203   12.3489 H         1 <0>         0.1262
     59 H19         7.1599    3.2695   13.4132 H         1 <0>         0.1409
     60 H20         6.9082    2.2734   11.9595 H         1 <0>         0.1326
     61 H21         9.0242    4.2099    9.7966 H         1 <0>         0.1415
     62 H22         7.9491    2.7984    9.9403 H         1 <0>         0.1328
     63 H23         6.7746    4.5550    8.7185 H         1 <0>         0.1273
     64 H24         7.1217    5.7313   10.0135 H         1 <0>         0.0878
     65 H25         9.3399    2.1216   11.8321 H         1 <0>         0.1218
     66 H26        10.3013    3.6119   11.6806 H         1 <0>         0.1253
     67 H27         9.5093    3.2170   13.2249 H         1 <0>         0.1251
     68 H28         0.4336   -3.2206    3.0723 H         1 <0>         0.0751
     69 H29        -0.9835   -2.1730    3.3226 H         1 <0>         0.0555
     70 H30        -1.1669   -3.7331    2.4857 H         1 <0>         0.0778
     71 H31         8.2947    4.8587   12.0003 H         1 <0>         0.4247
@<TRIPOS>BOND
     1    1    2 1
     2    1   41 1
     3    1   42 1
     4    1   43 1
     5    2    7 ar
     6    2    3 ar
     7    3    4 ar
     8    3   44 1
     9    4    5 ar
    10    4   45 1
    11    5    6 ar
    12    5   46 1
    13    6    7 ar
    14    6   40 1
    15    7    8 1
    16    8   18 1
    17    8    9 am
    18    9   10 2
    19    9   11 1
    20   11   16 ar
    21   11   12 ar
    22   12   13 ar
    23   12   47 1
    24   13   14 ar
    25   14   15 ar
    26   14   26 1
    27   15   16 ar
    28   16   17 1
    29   17   21 1
    30   17   18 1
    31   18   19 2
    32   19   20 1
    33   20   25 ar
    34   20   21 ar
    35   21   22 ar
    36   22   23 ar
    37   22   48 1
    38   23   24 ar
    39   23   49 1
    40   24   25 ar
    41   24   50 1
    42   25   51 1
    43   26   27 1
    44   26   52 1
    45   27   32 ar
    46   27   28 ar
    47   28   29 ar
    48   28   53 1
    49   29   30 ar
    50   29   54 1
    51   30   31 ar
    52   30   33 1
    53   31   32 ar
    54   31   55 1
    55   32   56 1
    56   33   38 1
    57   33   34 1
    58   34   35 1
    59   34   57 1
    60   34   58 1
    61   35   36 1
    62   35   59 1
    63   35   60 1
    64   36   37 1
    65   36   39 1
    66   36   71 1
    67   37   38 1
    68   37   61 1
    69   37   62 1
    70   38   63 1
    71   38   64 1
    72   39   65 1
    73   39   66 1
    74   39   67 1
    75   40   68 1
    76   40   69 1
    77   40   70 1
@<TRIPOS>MOLECULE
CHEMBL410295__1
   70    76     0     0     0
SMALL
USER_CHARGES

@<TRIPOS>ATOM
      1 C1          0.5186    1.2615    0.0095 C.3       1 <0>        -0.1159
      2 C2          0.2506   -0.2205    0.0621 C.ar      1 <0>        -0.0494
      3 C3          0.2480   -0.9643   -1.1017 C.ar      1 <0>        -0.1196
      4 C4          0.0021   -2.3242   -1.0543 C.ar      1 <0>        -0.0907
      5 C5         -0.2424   -2.9438    0.1576 C.ar      1 <0>        -0.1197
      6 C6         -0.2416   -2.2056    1.3249 C.ar      1 <0>        -0.0494
      7 C7          0.0116   -0.8408    1.2813 C.ar      1 <0>         0.1170
      8 N1          0.0193   -0.0906    2.4637 N.am      1 <0>        -0.4654
      9 C8          1.1751    0.0645    3.1411 C.2       1 <0>         0.5890
     10 O1          2.2051   -0.4396    2.7350 O.2       1 <0>        -0.4781
     11 C9          1.1648    0.8545    4.3783 C.ar      1 <0>        -0.3395
     12 C10         2.3161    1.0632    5.1373 C.ar      1 <0>         0.2971
     13 N2          2.2203    1.7881    6.2393 N.ar      1 <0>        -0.5612
     14 C11         1.0591    2.3080    6.6202 C.ar      1 <0>         0.6163
     15 N3         -0.0593    2.1337    5.9282 N.ar      1 <0>        -0.5851
     16 C12        -0.0504    1.4212    4.8123 C.ar      1 <0>         0.4871
     17 N4         -1.1954    1.2189    4.0649 N.pl3     1 <0>        -0.4376
     18 C13        -1.1580    0.4822    2.9116 C.2       1 <0>         0.5211
     19 N5         -2.3622    0.4407    2.3832 N.2       1 <0>        -0.4703
     20 C14        -3.2305    1.1434    3.1533 C.ar      1 <0>         0.0825
     21 C15        -2.5030    1.6456    4.2444 C.ar      1 <0>         0.0511
     22 C16        -3.1400    2.4111    5.2086 C.ar      1 <0>        -0.0802
     23 C17        -4.4922    2.6650    5.1007 C.ar      1 <0>        -0.1065
     24 C18        -5.2189    2.1592    4.0334 C.ar      1 <0>        -0.1061
     25 C19        -4.5976    1.4157    3.0546 C.ar      1 <0>        -0.0710
     26 N6          1.0141    3.0568    7.7788 N.pl3     1 <0>        -0.6130
     27 C20         2.1976    3.3550    8.4664 C.ar      1 <0>         0.0821
     28 C21         3.3518    3.6656    7.7596 C.ar      1 <0>        -0.0478
     29 C22         4.5182    3.9600    8.4372 C.ar      1 <0>        -0.1828
     30 C23         4.5370    3.9455    9.8258 C.ar      1 <0>         0.2194
     31 C24         3.3826    3.6349   10.5327 C.ar      1 <0>        -0.1829
     32 C25         2.2150    3.3457    9.8549 C.ar      1 <0>        -0.0802
     33 N7          5.7192    4.2434   10.5127 N.pl3     1 <0>        -0.6296
     34 C26         5.7935    4.1197   11.9764 C.3       1 <0>         0.1255
     35 C27         7.0211    3.2742   12.3318 C.3       1 <0>         0.0381
     36 N8          8.2118    3.8541   11.6962 N.3       1 <0>        -0.5426
     37 C28         8.1037    3.8207   10.2316 C.3       1 <0>         0.0377
     38 C29         6.9223    4.6827    9.7895 C.3       1 <0>         0.1246
     39 C30         9.4335    3.1759   12.1495 C.3       1 <0>         0.0241
     40 C31        -0.5090   -2.8814    2.6450 C.3       1 <0>        -0.1159
     41 H1          1.5897    1.4406    0.1034 H         1 <0>         0.0759
     42 H2          0.1655    1.6611   -0.9411 H         1 <0>         0.0767
     43 H3         -0.0054    1.7548    0.8281 H         1 <0>         0.0564
     44 H4          0.4379   -0.4832   -2.0498 H         1 <0>         0.1317
     45 H5          0.0006   -2.9037   -1.9657 H         1 <0>         0.1309
     46 H6         -0.4345   -4.0061    0.1913 H         1 <0>         0.1317
     47 H7          3.2631    0.6426    4.8327 H         1 <0>         0.1973
     48 H8         -2.5796    2.8075    6.0424 H         1 <0>         0.1361
     49 H9         -4.9877    3.2612    5.8526 H         1 <0>         0.1368
     50 H10        -6.2766    2.3647    3.9600 H         1 <0>         0.1373
     51 H11        -5.1691    1.0272    2.2246 H         1 <0>         0.1382
     52 H12         0.1630    3.3766    8.1169 H         1 <0>         0.4256
     53 H13         3.3373    3.6766    6.6797 H         1 <0>         0.1275
     54 H14         5.4160    4.2012    7.8875 H         1 <0>         0.1274
     55 H15         3.3973    3.6232   11.6125 H         1 <0>         0.1282
     56 H16         1.3161    3.1085   10.4046 H         1 <0>         0.1256
     57 H17         5.8888    5.1094   12.4231 H         1 <0>         0.0713
     58 H18         4.8927    3.6320   12.3488 H         1 <0>         0.0867
     59 H19         7.1548    3.2638   13.4135 H         1 <0>         0.0864
     60 H20         6.8771    2.2551   11.9729 H         1 <0>         0.0389
     61 H21         9.0225    4.2066    9.7901 H         1 <0>         0.0869
     62 H22         7.9446    2.7940    9.9019 H         1 <0>         0.0389
     63 H23         6.7673    4.5670    8.7168 H         1 <0>         0.0878
     64 H24         7.1281    5.7276   10.0220 H         1 <0>         0.0712
     65 H25         9.3793    2.1184   11.8909 H         1 <0>         0.0262
     66 H26        10.2998    3.6248   11.6636 H         1 <0>         0.0707
     67 H27         9.5279    3.2813   13.2303 H         1 <0>         0.0709
     68 H28         0.4323   -3.2230    3.0756 H         1 <0>         0.0757
     69 H29        -0.9845   -2.1748    3.3252 H         1 <0>         0.0565
     70 H30        -1.1683   -3.7353    2.4891 H         1 <0>         0.0766
@<TRIPOS>BOND
     1    1    2 1
     2    1   41 1
     3    1   42 1
     4    1   43 1
     5    2    7 ar
     6    2    3 ar
     7    3    4 ar
     8    3   44 1
     9    4    5 ar
    10    4   45 1
    11    5    6 ar
    12    5   46 1
    13    6    7 ar
    14    6   40 1
    15    7    8 1
    16    8   18 1
    17    8    9 am
    18    9   10 2
    19    9   11 1
    20   11   16 ar
    21   11   12 ar
    22   12   13 ar
    23   12   47 1
    24   13   14 ar
    25   14   15 ar
    26   14   26 1
    27   15   16 ar
    28   16   17 1
    29   17   21 1
    30   17   18 1
    31   18   19 2
    32   19   20 1
    33   20   25 ar
    34   20   21 ar
    35   21   22 ar
    36   22   23 ar
    37   22   48 1
    38   23   24 ar
    39   23   49 1
    40   24   25 ar
    41   24   50 1
    42   25   51 1
    43   26   27 1
    44   26   52 1
    45   27   32 ar
    46   27   28 ar
    47   28   29 ar
    48   28   53 1
    49   29   30 ar
    50   29   54 1
    51   30   31 ar
    52   30   33 1
    53   31   32 ar
    54   31   55 1
    55   32   56 1
    56   33   38 1
    57   33   34 1
    58   34   35 1
    59   34   57 1
    60   34   58 1
    61   35   36 1
    62   35   59 1
    63   35   60 1
    64   36   37 1
    65   36   39 1
    66   37   38 1
    67   37   61 1
    68   37   62 1
    69   38   63 1
    70   38   64 1
    71   39   65 1
    72   39   66 1
    73   39   67 1
    74   40   68 1
    75   40   69 1
    76   40   70 1
@<TRIPOS>MOLECULE
CHEMBL500659
   39    42     0     0     0
SMALL
USER_CHARGES

@<TRIPOS>ATOM
      1 C1         -0.0178    1.4608    0.0101 C.3       1 <0>         0.0975
      2 N1          0.0021   -0.0041    0.0020 N.pl3     1 <0>        -0.3635
      3 C2          0.0077   -0.7862   -1.0963 C.2       1 <0>         0.0790
      4 C3          0.0278   -2.0857   -0.6836 C.2       1 <0>        -0.1911
      5 C4          0.0344   -2.0816    0.7348 C.2       1 <0>         0.1239
      6 N2          0.0245   -0.8284    1.1333 N.2       1 <0>        -0.2729
      7 C5          0.0545   -3.2768    1.6116 C.ar      1 <0>         0.0298
      8 C6         -0.6150   -4.4482    1.2445 C.ar      1 <0>        -0.1429
      9 C7         -0.5701   -5.5375    2.0898 C.ar      1 <0>         0.1015
     10 N3          0.0923   -5.4834    3.2296 N.ar      1 <0>        -0.4796
     11 C8          0.7370   -4.3980    3.6131 C.ar      1 <0>         0.1000
     12 C9          0.7483   -3.2655    2.8255 C.ar      1 <0>        -0.1467
     13 C10         0.0403   -3.2831   -1.5572 C.ar      1 <0>         0.0228
     14 C11         0.9766   -4.2952   -1.3423 C.ar      1 <0>        -0.1110
     15 C12         0.9870   -5.4051   -2.1525 C.ar      1 <0>        -0.0640
     16 C13         0.0586   -5.5266   -3.1976 C.ar      1 <0>        -0.0697
     17 C14        -0.8753   -4.5137   -3.4094 C.ar      1 <0>        -0.0574
     18 C15        -0.8869   -3.4027   -2.5910 C.ar      1 <0>        -0.1060
     19 C16        -1.7569   -4.8733   -4.5816 C.3       1 <0>        -0.0827
     20 C17        -1.2687   -6.2374   -5.0876 C.3       1 <0>        -0.1141
     21 C18        -0.1199   -6.6114   -4.1827 C.2       1 <0>         0.1732
     22 N4          0.5853   -7.6938   -4.2575 N.2       1 <0>        -0.3253
     23 O1          0.3030   -8.6551   -5.2582 O.3       1 <0>        -0.4063
     24 H1          1.0048    1.8381    0.0023 H         1 <0>         0.0805
     25 H2         -0.5450    1.8219   -0.8730 H         1 <0>         0.0930
     26 H3         -0.5280    1.8123    0.9069 H         1 <0>         0.0938
     27 H4         -0.0019   -0.4443   -2.1207 H         1 <0>         0.1831
     28 H5         -1.1594   -4.4994    0.3132 H         1 <0>         0.1381
     29 H6         -1.0844   -6.4465    1.8151 H         1 <0>         0.1592
     30 H7          1.2663   -4.3975    4.5546 H         1 <0>         0.1597
     31 H8          1.2816   -2.3820    3.1437 H         1 <0>         0.1382
     32 H9          1.6934   -4.2060   -0.5394 H         1 <0>         0.1265
     33 H10         1.7129   -6.1869   -1.9843 H         1 <0>         0.1295
     34 H11        -1.6142   -2.6212   -2.7548 H         1 <0>         0.1284
     35 H12        -2.7961   -4.9434   -4.2605 H         1 <0>         0.0902
     36 H13        -1.6574   -4.1250   -5.3680 H         1 <0>         0.0897
     37 H14        -2.0662   -6.9763   -5.0104 H         1 <0>         0.0949
     38 H15        -0.9260   -6.1569   -6.1192 H         1 <0>         0.0944
     39 H16         0.8821   -9.4291   -5.2346 H         1 <0>         0.4062
@<TRIPOS>BOND
     1    1    2 1
     2    1   24 1
     3    1   25 1
     4    1   26 1
     5    2    6 1
     6    2    3 1
     7    3    4 2
     8    3   27 1
     9    4    5 1
    10    4   13 1
    11    5    6 2
    12    5    7 1
    13    7   12 ar
    14    7    8 ar
    15    8    9 ar
    16    8   28 1
    17    9   10 ar
    18    9   29 1
    19   10   11 ar
    20   11   12 ar
    21   11   30 1
    22   12   31 1
    23   13   18 ar
    24   13   14 ar
    25   14   15 ar
    26   14   32 1
    27   15   16 ar
    28   15   33 1
    29   16   21 1
    30   16   17 ar
    31   17   18 ar
    32   17   19 1
    33   18   34 1
    34   19   20 1
    35   19   35 1
    36   19   36 1
    37   20   21 1
    38   20   37 1
    39   20   38 1
    40   21   22 2
    41   22   23 1
    42   23   39 1
@<TRIPOS>MOLECULE
CHEMBL247797
   53    55     0     0     0
SMALL
USER_CHARGES

@<TRIPOS>ATOM
      1 C1          2.0385   -1.2772   -0.6519 C.3       1 <0>         0.1054
      2 N1          0.6767   -0.8151   -0.3723 N.am      1 <0>        -0.7469
      3 C2         -0.3435   -1.6956   -0.3554 C.2       1 <0>         0.6904
      4 O1         -0.1337   -2.8734   -0.5721 O.2       1 <0>        -0.5223
      5 N2         -1.5963   -1.2705   -0.0982 N.am      1 <0>        -0.6700
      6 C3         -2.6657   -2.1605   -0.1841 C.ar      1 <0>         0.3922
      7 C4         -3.9655   -1.6929   -0.0252 C.ar      1 <0>        -0.2106
      8 C5         -5.0177   -2.5870   -0.1129 C.ar      1 <0>        -0.0201
      9 C6         -4.7325   -3.9236   -0.3575 C.ar      1 <0>        -0.2056
     10 C7         -3.4177   -4.3183   -0.5049 C.ar      1 <0>         0.1628
     11 N3         -2.4349   -3.4419   -0.4215 N.ar      1 <0>        -0.4728
     12 C8         -5.8465   -4.9333   -0.4605 C.3       1 <0>         0.1601
     13 N4         -6.2911   -5.0296   -1.8530 N.pl3     1 <0>        -0.6997
     14 C9         -7.3840   -5.8080   -2.1763 C.2       1 <0>         0.4451
     15 C10        -7.8631   -6.0706   -3.4578 C.2       1 <0>        -0.3779
     16 C11        -8.9935   -6.9089   -3.3122 C.2       1 <0>         0.1134
     17 N5         -9.1752   -7.1296   -2.0410 N.2       1 <0>        -0.2958
     18 N6         -8.1856   -6.4622   -1.3114 N.pl3     1 <0>        -0.3953
     19 C12        -8.0453   -6.4704    0.1469 C.3       1 <0>         0.0850
     20 C13        -7.3022   -5.5720   -4.7191 C.2       1 <0>         0.6082
     21 O2         -6.3206   -4.8528   -4.7063 O.2       1 <0>        -0.5445
     22 N7         -7.8744   -5.9105   -5.8915 N.am      1 <0>        -0.6709
     23 C14        -7.2964   -5.4958   -7.0986 C.ar      1 <0>         0.1699
     24 C15        -8.1007   -5.2383   -8.2010 C.ar      1 <0>        -0.1311
     25 C16        -7.5316   -4.8302   -9.3906 C.ar      1 <0>        -0.0594
     26 C17        -6.1539   -4.6767   -9.4848 C.ar      1 <0>        -0.1273
     27 C18        -5.3495   -4.9341   -8.3815 C.ar      1 <0>        -0.0986
     28 C19        -5.9199   -5.3371   -7.1907 C.ar      1 <0>        -0.1009
     29 S1         -5.4269   -4.1564  -11.0032 S.3       1 <0>        -0.0273
     30 C20        -3.6498   -4.1025  -10.6431 C.3       1 <0>         0.4519
     31 F1         -3.2132   -5.3747  -10.2583 F         1 <0>        -0.1630
     32 F2         -2.9543   -3.6970  -11.7873 F         1 <0>        -0.1456
     33 F3         -3.4115   -3.1942   -9.6061 F         1 <0>        -0.1628
     34 H1          2.7230   -0.4294   -0.6229 H         1 <0>         0.0789
     35 H2          2.3351   -2.0094    0.0991 H         1 <0>         0.0611
     36 H3          2.0707   -1.7365   -1.6398 H         1 <0>         0.0612
     37 H4          0.5093    0.1246   -0.1994 H         1 <0>         0.3981
     38 H5         -1.7539   -0.3452    0.1467 H         1 <0>         0.4150
     39 H6         -4.1513   -0.6460    0.1644 H         1 <0>         0.1400
     40 H7         -6.0377   -2.2528    0.0066 H         1 <0>         0.1402
     41 H8         -3.1911   -5.3570   -0.6949 H         1 <0>         0.1601
     42 H9         -5.4871   -5.9063   -0.1257 H         1 <0>         0.0781
     43 H10        -6.6810   -4.6189    0.1664 H         1 <0>         0.0799
     44 H11        -5.8174   -4.5462   -2.5479 H         1 <0>         0.4326
     45 H12        -9.6010   -7.2982   -4.1158 H         1 <0>         0.1889
     46 H13        -8.5199   -5.5815    0.5625 H         1 <0>         0.0761
     47 H14        -8.5241   -7.3614    0.5529 H         1 <0>         0.0976
     48 H15        -6.9876   -6.4742    0.4101 H         1 <0>         0.0929
     49 H16        -8.6863   -6.4411   -5.8996 H         1 <0>         0.4124
     50 H17        -9.1716   -5.3576   -8.1277 H         1 <0>         0.1389
     51 H18        -8.1571   -4.6306  -10.2481 H         1 <0>         0.1378
     52 H19        -4.2785   -4.8153   -8.4544 H         1 <0>         0.1258
     53 H20        -5.2951   -5.5329   -6.3318 H         1 <0>         0.1486
@<TRIPOS>BOND
     1    1    2 1
     2    1   34 1
     3    1   35 1
     4    1   36 1
     5    2    3 am
     6    2   37 1
     7    3    4 2
     8    3    5 am
     9    5    6 1
    10    5   38 1
    11    6   11 ar
    12    6    7 ar
    13    7    8 ar
    14    7   39 1
    15    8    9 ar
    16    8   40 1
    17    9   10 ar
    18    9   12 1
    19   10   11 ar
    20   10   41 1
    21   12   13 1
    22   12   42 1
    23   12   43 1
    24   13   14 1
    25   13   44 1
    26   14   18 1
    27   14   15 2
    28   15   16 1
    29   15   20 1
    30   16   17 2
    31   16   45 1
    32   17   18 1
    33   18   19 1
    34   19   46 1
    35   19   47 1
    36   19   48 1
    37   20   21 2
    38   20   22 am
    39   22   23 1
    40   22   49 1
    41   23   28 ar
    42   23   24 ar
    43   24   25 ar
    44   24   50 1
    45   25   26 ar
    46   25   51 1
    47   26   27 ar
    48   26   29 1
    49   27   28 ar
    50   27   52 1
    51   28   53 1
    52   29   30 1
    53   30   31 1
    54   30   32 1
    55   30   33 1
@<TRIPOS>MOLECULE
CHEMBL247797__1
   54    56     0     0     0
SMALL
USER_CHARGES

@<TRIPOS>ATOM
      1 C1         -0.4296   -1.3254    2.0665 C.3       1 <0>         0.1035
      2 N1          0.0018   -0.8302    0.7569 N.am      1 <0>        -0.7431
      3 C2          0.5107   -1.6849   -0.1525 C.2       1 <0>         0.6904
      4 O1          0.6118   -2.8668    0.1140 O.2       1 <0>        -0.5217
      5 N2          0.9075   -1.2294   -1.3573 N.am      1 <0>        -0.6687
      6 C3          1.5301   -2.0920   -2.2580 C.ar      1 <0>         0.4102
      7 C4          2.0348   -1.5925   -3.4535 C.ar      1 <0>        -0.2112
      8 C5          2.6504   -2.4596   -4.3385 C.ar      1 <0>        -0.0138
      9 C6          2.7405   -3.8021   -3.9960 C.ar      1 <0>        -0.2337
     10 C7          2.2172   -4.2291   -2.7919 C.ar      1 <0>         0.1728
     11 N3          1.6403   -3.3779   -1.9651 N.ar      1 <0>        -0.4720
     12 C8          3.4021   -4.7831   -4.9293 C.3       1 <0>         0.1432
     13 N4          4.8318   -4.8634   -4.6198 N.pl3     1 <0>        -0.6460
     14 C9          5.6700   -5.6131   -5.4200 C.2       1 <0>         0.5240
     15 C10         7.0233   -5.8592   -5.1993 C.2       1 <0>        -0.3233
     16 C11         7.4752   -6.6693   -6.2677 C.2       1 <0>         0.2544
     17 N5          6.4685   -6.8898   -7.0649 N.pl3     1 <0>        -0.3806
     18 N6          5.3317   -6.2500   -6.5595 N.pl3     1 <0>        -0.3657
     19 C12         3.9989   -6.2668   -7.1673 C.3       1 <0>         0.0528
     20 C13         7.8276   -5.3703   -4.0732 C.2       1 <0>         0.6011
     21 O2          7.3148   -4.6760   -3.2153 O.2       1 <0>        -0.5123
     22 N7          9.1342   -5.6903   -3.9892 N.am      1 <0>        -0.6576
     23 C14         9.8843   -5.2861   -2.8770 C.ar      1 <0>         0.1440
     24 C15        11.2369   -5.0045   -3.0171 C.ar      1 <0>        -0.1178
     25 C16        11.9764   -4.6067   -1.9214 C.ar      1 <0>        -0.0609
     26 C17        11.3671   -4.4876   -0.6784 C.ar      1 <0>        -0.1117
     27 C18        10.0137   -4.7689   -0.5387 C.ar      1 <0>        -0.1010
     28 C19         9.2737   -5.1617   -1.6359 C.ar      1 <0>        -0.0940
     29 S1         12.3107   -3.9804    0.7206 S.3       1 <0>        -0.0138
     30 C20        11.1100   -3.9724    2.0803 C.3       1 <0>         0.4510
     31 F1         10.5784   -5.2565    2.2405 F         1 <0>        -0.1625
     32 F2         11.7470   -3.5805    3.2626 F         1 <0>        -0.1407
     33 F3         10.0786   -3.0740    1.7864 F         1 <0>        -0.1626
     34 H1         -1.2168   -2.0674    1.9331 H         1 <0>         0.0630
     35 H2          0.4171   -1.7820    2.5791 H         1 <0>         0.0627
     36 H3         -0.8099   -0.4951    2.6616 H         1 <0>         0.0821
     37 H4         -0.0789    0.1127    0.5443 H         1 <0>         0.4000
     38 H5          0.7598   -0.3013   -1.5976 H         1 <0>         0.4182
     39 H6          1.9471   -0.5420   -3.6882 H         1 <0>         0.1453
     40 H7          3.0515   -2.1004   -5.2747 H         1 <0>         0.1415
     41 H8          2.2846   -5.2725   -2.5214 H         1 <0>         0.1611
     42 H9          2.9477   -5.7661   -4.8049 H         1 <0>         0.0977
     43 H10         3.2713   -4.4501   -5.9589 H         1 <0>         0.0961
     44 H11         5.1893   -4.3897   -3.8526 H         1 <0>         0.4518
     45 H12         8.4808   -7.0405   -6.3997 H         1 <0>         0.2411
     46 H13         3.8623   -5.3677   -7.7683 H         1 <0>         0.1087
     47 H14         3.9003   -7.1470   -7.8026 H         1 <0>         0.1181
     48 H15         3.2424   -6.2981   -6.3832 H         1 <0>         0.1279
     49 H16         9.5552   -6.2004   -4.6988 H         1 <0>         0.4121
     50 H17        11.7105   -5.0972   -3.9833 H         1 <0>         0.1413
     51 H18        13.0285   -4.3885   -2.0303 H         1 <0>         0.1434
     52 H19         9.5398   -4.6768    0.4274 H         1 <0>         0.1305
     53 H20         8.2207   -5.3761   -1.5283 H         1 <0>         0.1474
     54 H21         6.5013   -7.4171   -7.8783 H         1 <0>         0.4769
@<TRIPOS>BOND
     1    1    2 1
     2    1   34 1
     3    1   35 1
     4    1   36 1
     5    2    3 am
     6    2   37 1
     7    3    4 2
     8    3    5 am
     9    5    6 1
    10    5   38 1
    11    6   11 ar
    12    6    7 ar
    13    7    8 ar
    14    7   39 1
    15    8    9 ar
    16    8   40 1
    17    9   10 ar
    18    9   12 1
    19   10   11 ar
    20   10   41 1
    21   12   13 1
    22   12   42 1
    23   12   43 1
    24   13   14 1
    25   13   44 1
    26   14   18 1
    27   14   15 2
    28   15   16 1
    29   15   20 1
    30   16   17 2
    31   16   45 1
    32   17   18 1
    33   17   54 1
    34   18   19 1
    35   19   46 1
    36   19   47 1
    37   19   48 1
    38   20   21 2
    39   20   22 am
    40   22   23 1
    41   22   49 1
    42   23   28 ar
    43   23   24 ar
    44   24   25 ar
    45   24   50 1
    46   25   26 ar
    47   25   51 1
    48   26   27 ar
    49   26   29 1
    50   27   28 ar
    51   27   52 1
    52   28   53 1
    53   29   30 1
    54   30   31 1
    55   30   32 1
    56   30   33 1
@<TRIPOS>MOLECULE
CHEMBL247435
   50    53     0     0     0
SMALL
USER_CHARGES

@<TRIPOS>ATOM
      1 C1         -3.5414    2.5492    0.7153 C.3       1 <0>         0.0843
      2 N1         -2.9457    1.2167    0.5887 N.am      1 <0>        -0.7141
      3 C2         -3.7373    0.1274    0.5314 C.2       1 <0>         0.5694
      4 O1         -4.9450    0.2505    0.5848 O.2       1 <0>        -0.5289
      5 C3         -3.1348   -1.2202    0.4034 C.ar      1 <0>         0.0797
      6 C4         -3.9587   -2.3418    0.3390 C.ar      1 <0>        -0.0886
      7 C5         -3.3806   -3.5956    0.2193 C.ar      1 <0>        -0.0748
      8 C6         -1.9981   -3.6842    0.1682 C.ar      1 <0>        -0.1252
      9 C7         -1.2403   -2.5263    0.2377 C.ar      1 <0>         0.1035
     10 N2         -1.8151   -1.3483    0.3457 N.ar      1 <0>        -0.4506
     11 C8         -4.2354   -4.8346    0.1468 C.3       1 <0>         0.1487
     12 N3         -4.5566   -5.1251   -1.2527 N.pl3     1 <0>        -0.7001
     13 C9         -5.4400   -6.1395   -1.5617 C.2       1 <0>         0.4449
     14 C10        -5.7775   -6.5826   -2.8387 C.2       1 <0>        -0.3744
     15 C11        -6.7123   -7.6324   -2.6776 C.2       1 <0>         0.1143
     16 N4         -6.9169   -7.8027   -1.4023 N.2       1 <0>        -0.2928
     17 N5         -6.1345   -6.8920   -0.6843 N.pl3     1 <0>        -0.3941
     18 C12        -6.0808   -6.7739    0.7749 C.3       1 <0>         0.0839
     19 C13        -5.2618   -6.0595   -4.1093 C.2       1 <0>         0.6094
     20 O2         -4.4562   -5.1474   -4.1097 O.2       1 <0>        -0.5448
     21 N6         -5.6806   -6.5893   -5.2756 N.am      1 <0>        -0.6676
     22 C14        -5.2645   -6.0277   -6.4893 C.ar      1 <0>         0.1754
     23 C15        -6.1354   -5.9861   -7.5699 C.ar      1 <0>        -0.1259
     24 C16        -5.7261   -5.4328   -8.7681 C.ar      1 <0>        -0.0597
     25 C17        -4.4462   -4.9175   -8.8947 C.ar      1 <0>         0.0064
     26 C18        -3.5704   -4.9574   -7.8124 C.ar      1 <0>         0.0474
     27 C19        -3.9833   -5.5074   -6.6103 C.ar      1 <0>        -0.0875
     28 O3         -2.3855   -4.3938   -8.1890 O.3       1 <0>        -0.2849
     29 C20        -2.4064   -4.3797   -9.6286 C.3       1 <0>         0.5705
     30 O4         -3.8090   -4.3285   -9.9497 O.3       1 <0>        -0.2856
     31 F1         -1.7482   -3.2466  -10.1186 F         1 <0>        -0.1160
     32 F2         -1.8272   -5.5459  -10.1401 F         1 <0>        -0.1532
     33 H1         -2.7509    3.2991    0.7459 H         1 <0>         0.0805
     34 H2         -4.1902    2.7398   -0.1395 H         1 <0>         0.0638
     35 H3         -4.1261    2.6000    1.6338 H         1 <0>         0.0637
     36 H4         -1.9816    1.1185    0.5462 H         1 <0>         0.4134
     37 H5         -5.0326   -2.2357    0.3820 H         1 <0>         0.1510
     38 H6         -1.5164   -4.6464    0.0755 H         1 <0>         0.1462
     39 H7         -0.1630   -2.5916    0.1982 H         1 <0>         0.1702
     40 H8         -3.6926   -5.6762    0.5773 H         1 <0>         0.0845
     41 H9         -5.1574   -4.6731    0.7052 H         1 <0>         0.0871
     42 H10        -4.1483   -4.6046   -1.9621 H         1 <0>         0.4337
     43 H11        -7.1760   -8.1953   -3.4742 H         1 <0>         0.1909
     44 H12        -6.7525   -5.9794    1.1001 H         1 <0>         0.0782
     45 H13        -6.3875   -7.7169    1.2274 H         1 <0>         0.0997
     46 H14        -5.0623   -6.5374    1.0830 H         1 <0>         0.0911
     47 H15        -6.2701   -7.3596   -5.2745 H         1 <0>         0.4163
     48 H16        -7.1336   -6.3871   -7.4740 H         1 <0>         0.1512
     49 H17        -6.4050   -5.4022   -9.6075 H         1 <0>         0.1500
     50 H18        -3.3072   -5.5352   -5.7685 H         1 <0>         0.1597
@<TRIPOS>BOND
     1    1    2 1
     2    1   33 1
     3    1   34 1
     4    1   35 1
     5    2    3 am
     6    2   36 1
     7    3    4 2
     8    3    5 1
     9    5   10 ar
    10    5    6 ar
    11    6    7 ar
    12    6   37 1
    13    7    8 ar
    14    7   11 1
    15    8    9 ar
    16    8   38 1
    17    9   10 ar
    18    9   39 1
    19   11   12 1
    20   11   40 1
    21   11   41 1
    22   12   13 1
    23   12   42 1
    24   13   17 1
    25   13   14 2
    26   14   15 1
    27   14   19 1
    28   15   16 2
    29   15   43 1
    30   16   17 1
    31   17   18 1
    32   18   44 1
    33   18   45 1
    34   18   46 1
    35   19   20 2
    36   19   21 am
    37   21   22 1
    38   21   47 1
    39   22   27 ar
    40   22   23 ar
    41   23   24 ar
    42   23   48 1
    43   24   25 ar
    44   24   49 1
    45   25   30 1
    46   25   26 ar
    47   26   27 ar
    48   26   28 1
    49   27   50 1
    50   28   29 1
    51   29   30 1
    52   29   31 1
    53   29   32 1
@<TRIPOS>MOLECULE
CHEMBL247435__1
   51    54     0     0     0
SMALL
USER_CHARGES

@<TRIPOS>ATOM
      1 C1         -3.5409    2.5498    0.7144 C.3       1 <0>         0.0820
      2 N1         -2.9452    1.2173    0.5879 N.am      1 <0>        -0.7095
      3 C2         -3.7368    0.1280    0.5307 C.2       1 <0>         0.5658
      4 O1         -4.9445    0.2511    0.5841 O.2       1 <0>        -0.5290
      5 C3         -3.1343   -1.2196    0.4027 C.ar      1 <0>         0.0892
      6 C4         -3.9582   -2.3412    0.3384 C.ar      1 <0>        -0.0885
      7 C5         -3.3801   -3.5951    0.2188 C.ar      1 <0>        -0.0939
      8 C6         -1.9976   -3.6836    0.1677 C.ar      1 <0>        -0.1227
      9 C7         -1.2398   -2.5257    0.2370 C.ar      1 <0>         0.1103
     10 N2         -1.8147   -1.3477    0.3449 N.ar      1 <0>        -0.4411
     11 C8         -4.2349   -4.8341    0.1465 C.3       1 <0>         0.1316
     12 N3         -4.5561   -5.1247   -1.2530 N.pl3     1 <0>        -0.6483
     13 C9         -5.4396   -6.1391   -1.5619 C.2       1 <0>         0.5261
     14 C10        -5.7772   -6.5822   -2.8388 C.2       1 <0>        -0.3214
     15 C11        -6.7119   -7.6320   -2.6776 C.2       1 <0>         0.2572
     16 N4         -6.9165   -7.8023   -1.4022 N.pl3     1 <0>        -0.3779
     17 N5         -6.1340   -6.8915   -0.6844 N.pl3     1 <0>        -0.3645
     18 C12        -6.0802   -6.7733    0.7749 C.3       1 <0>         0.0516
     19 C13        -5.2616   -6.0593   -4.1094 C.2       1 <0>         0.6028
     20 O2         -4.4559   -5.1472   -4.1100 O.2       1 <0>        -0.5122
     21 N6         -5.6804   -6.5892   -5.2757 N.am      1 <0>        -0.6544
     22 C14        -5.2644   -6.0276   -6.4895 C.ar      1 <0>         0.1514
     23 C15        -6.1354   -5.9862   -7.5701 C.ar      1 <0>        -0.1140
     24 C16        -5.7262   -5.4329   -8.7682 C.ar      1 <0>        -0.0606
     25 C17        -4.4463   -4.9177   -8.8950 C.ar      1 <0>         0.0248
     26 C18        -3.5704   -4.9574   -7.8128 C.ar      1 <0>         0.0487
     27 C19        -3.9832   -5.5074   -6.6106 C.ar      1 <0>        -0.0833
     28 O3         -2.3855   -4.3939   -8.1895 O.3       1 <0>        -0.2833
     29 C20        -2.4065   -4.3799   -9.6290 C.3       1 <0>         0.5726
     30 O4         -3.8091   -4.3287   -9.9501 O.3       1 <0>        -0.2821
     31 F1         -1.7483   -3.2469  -10.1193 F         1 <0>        -0.1105
     32 F2         -1.8274   -5.5462  -10.1405 F         1 <0>        -0.1491
     33 H1         -2.7505    3.2997    0.7449 H         1 <0>         0.0839
     34 H2         -4.1898    2.7404   -0.1405 H         1 <0>         0.0659
     35 H3         -4.1256    2.6007    1.6329 H         1 <0>         0.0661
     36 H4         -1.9812    1.1191    0.5453 H         1 <0>         0.4146
     37 H5         -5.0321   -2.2351    0.3815 H         1 <0>         0.1529
     38 H6         -1.5159   -4.6458    0.0750 H         1 <0>         0.1488
     39 H7         -0.1625   -2.5910    0.1974 H         1 <0>         0.1754
     40 H8         -3.6921   -5.6756    0.5770 H         1 <0>         0.1045
     41 H9         -5.1569   -4.6725    0.7050 H         1 <0>         0.1035
     42 H10        -4.1479   -4.6043   -1.9625 H         1 <0>         0.4532
     43 H11        -7.1757   -8.1950   -3.4741 H         1 <0>         0.2433
     44 H12        -6.7519   -5.9788    1.1000 H         1 <0>         0.1109
     45 H13        -6.3869   -7.7163    1.2274 H         1 <0>         0.1204
     46 H14        -5.0617   -6.5367    1.0829 H         1 <0>         0.1264
     47 H15        -6.2700   -7.3595   -5.2746 H         1 <0>         0.4162
     48 H16        -7.1336   -6.3871   -7.4740 H         1 <0>         0.1533
     49 H17        -6.4051   -5.4023   -9.6076 H         1 <0>         0.1556
     50 H18        -3.3071   -5.5351   -5.7689 H         1 <0>         0.1590
     51 H19        -7.5139   -8.4594   -1.0120 H         1 <0>         0.4782
@<TRIPOS>BOND
     1    1    2 1
     2    1   33 1
     3    1   34 1
     4    1   35 1
     5    2    3 am
     6    2   36 1
     7    3    4 2
     8    3    5 1
     9    5   10 ar
    10    5    6 ar
    11    6    7 ar
    12    6   37 1
    13    7    8 ar
    14    7   11 1
    15    8    9 ar
    16    8   38 1
    17    9   10 ar
    18    9   39 1
    19   11   12 1
    20   11   40 1
    21   11   41 1
    22   12   13 1
    23   12   42 1
    24   13   17 1
    25   13   14 2
    26   14   15 1
    27   14   19 1
    28   15   16 2
    29   15   43 1
    30   16   17 1
    31   16   51 1
    32   17   18 1
    33   18   44 1
    34   18   45 1
    35   18   46 1
    36   19   20 2
    37   19   21 am
    38   21   22 1
    39   21   47 1
    40   22   27 ar
    41   22   23 ar
    42   23   24 ar
    43   23   48 1
    44   24   25 ar
    45   24   49 1
    46   25   30 1
    47   25   26 ar
    48   26   27 ar
    49   26   28 1
    50   27   50 1
    51   28   29 1
    52   29   30 1
    53   29   31 1
    54   29   32 1
@<TRIPOS>MOLECULE
CHEMBL247434
   49    52     0     0     0
SMALL
USER_CHARGES

@<TRIPOS>ATOM
      1 C1         -0.0055    1.4859   -0.0331 C.3       1 <0>         0.0845
      2 N1          0.0125    0.0211   -0.0311 N.am      1 <0>        -0.7147
      3 C2          0.5934   -0.6471   -1.0472 C.2       1 <0>         0.5697
      4 O1          1.1022   -0.0345   -1.9651 O.2       1 <0>        -0.5290
      5 C3          0.6117   -2.1287   -1.0452 C.ar      1 <0>         0.0780
      6 C4          1.2187   -2.8134   -2.0956 C.ar      1 <0>        -0.0894
      7 C5          1.2279   -4.1992   -2.0797 C.ar      1 <0>        -0.0731
      8 C6          0.6294   -4.8522   -1.0134 C.ar      1 <0>        -0.1263
      9 C7          0.0441   -4.1069   -0.0025 C.ar      1 <0>         0.1015
     10 N2          0.0544   -2.7923   -0.0399 N.ar      1 <0>        -0.4526
     11 C8          1.8733   -4.9785   -3.1965 C.3       1 <0>         0.1677
     12 N3          3.2830   -5.2152   -2.8755 N.pl3     1 <0>        -0.6833
     13 C9          4.0882   -5.9182   -3.7617 C.2       1 <0>         0.4461
     14 C10         5.4363   -6.1729   -3.4962 C.2       1 <0>        -0.3971
     15 S1          5.8913   -7.0806   -4.9653 S.3       1 <0>         0.1578
     16 C11         4.3955   -7.0484   -5.7349 C.2       1 <0>         0.1079
     17 N4          3.6272   -6.3897   -4.8998 N.2       1 <0>        -0.5626
     18 C12         6.2220   -5.8117   -2.3758 C.2       1 <0>         0.6304
     19 O2          5.7235   -5.1824   -1.4597 O.2       1 <0>        -0.5291
     20 N5          7.5218   -6.1642   -2.3224 N.am      1 <0>        -0.6695
     21 C13         8.3234   -5.7248   -1.2616 C.ar      1 <0>         0.1741
     22 C14         7.7840   -5.6015    0.0120 C.ar      1 <0>        -0.0991
     23 C15         8.5742   -5.1672    1.0584 C.ar      1 <0>        -0.0673
     24 C16         9.9077   -4.8533    0.8411 C.ar      1 <0>         0.0321
     25 C17        10.4511   -4.9777   -0.4321 C.ar      1 <0>         0.0707
     26 C18         9.6588   -5.4177   -1.4814 C.ar      1 <0>        -0.1190
     27 O3         11.7595   -4.6819   -0.6631 O.3       1 <0>        -0.2957
     28 C19        12.4269   -3.8959    0.3302 C.3       1 <0>         0.4138
     29 C20        12.0900   -4.4778    1.7097 C.3       1 <0>         0.4127
     30 O4         10.6701   -4.4231    1.8846 O.3       1 <0>        -0.2944
     31 F1         12.5230   -5.8062    1.7800 F         1 <0>        -0.1501
     32 F2         12.7177   -3.7229    2.7063 F         1 <0>        -0.1221
     33 F3         13.8093   -3.9467    0.1215 F         1 <0>        -0.1217
     34 F4         11.9864   -2.5701    0.2570 F         1 <0>        -0.1487
     35 H1          1.0175    1.8619   -0.0448 H         1 <0>         0.0634
     36 H2         -0.5334    1.8416   -0.9180 H         1 <0>         0.0633
     37 H3         -0.5141    1.8443    0.8619 H         1 <0>         0.0801
     38 H4         -0.3936   -0.4680    0.7016 H         1 <0>         0.4132
     39 H5          1.6754   -2.2721   -2.9109 H         1 <0>         0.1506
     40 H6          0.6191   -5.9313   -0.9711 H         1 <0>         0.1449
     41 H7         -0.4231   -4.6124    0.8297 H         1 <0>         0.1689
     42 H8          1.3624   -5.9339   -3.3154 H         1 <0>         0.0859
     43 H9          1.8023   -4.4105   -4.1241 H         1 <0>         0.0850
     44 H10         3.6538   -4.8809   -2.0439 H         1 <0>         0.4282
     45 H11         4.1290   -7.4739   -6.6912 H         1 <0>         0.2311
     46 H12         7.9019   -6.7222   -3.0188 H         1 <0>         0.4135
     47 H13         6.7462   -5.8457    0.1846 H         1 <0>         0.1621
     48 H14         8.1526   -5.0714    2.0481 H         1 <0>         0.1543
     49 H15        10.0798   -5.5173   -2.4710 H         1 <0>         0.1531
@<TRIPOS>BOND
     1    1    2 1
     2    1   35 1
     3    1   36 1
     4    1   37 1
     5    2    3 am
     6    2   38 1
     7    3    4 2
     8    3    5 1
     9    5   10 ar
    10    5    6 ar
    11    6    7 ar
    12    6   39 1
    13    7    8 ar
    14    7   11 1
    15    8    9 ar
    16    8   40 1
    17    9   10 ar
    18    9   41 1
    19   11   12 1
    20   11   42 1
    21   11   43 1
    22   12   13 1
    23   12   44 1
    24   13   17 1
    25   13   14 2
    26   14   15 1
    27   14   18 1
    28   15   16 1
    29   16   17 2
    30   16   45 1
    31   18   19 2
    32   18   20 am
    33   20   21 1
    34   20   46 1
    35   21   26 ar
    36   21   22 ar
    37   22   23 ar
    38   22   47 1
    39   23   24 ar
    40   23   48 1
    41   24   30 1
    42   24   25 ar
    43   25   26 ar
    44   25   27 1
    45   26   49 1
    46   27   28 1
    47   28   29 1
    48   28   33 1
    49   28   34 1
    50   29   30 1
    51   29   31 1
    52   29   32 1
@<TRIPOS>MOLECULE
CHEMBL247619
   55    58     0     0     0
SMALL
USER_CHARGES

@<TRIPOS>ATOM
      1 C1          2.0387   -1.2776   -0.6519 C.3       1 <0>         0.1053
      2 N1          0.6769   -0.8155   -0.3722 N.am      1 <0>        -0.7468
      3 C2         -0.3433   -1.6960   -0.3553 C.2       1 <0>         0.6904
      4 O1         -0.1335   -2.8738   -0.5722 O.2       1 <0>        -0.5221
      5 N2         -1.5961   -1.2709   -0.0980 N.am      1 <0>        -0.6700
      6 C3         -2.6655   -2.1609   -0.1839 C.ar      1 <0>         0.3926
      7 C4         -3.9653   -1.6933   -0.0249 C.ar      1 <0>        -0.2108
      8 C5         -5.0175   -2.5873   -0.1126 C.ar      1 <0>        -0.0200
      9 C6         -4.7324   -3.9239   -0.3574 C.ar      1 <0>        -0.2062
     10 C7         -3.4176   -4.3186   -0.5049 C.ar      1 <0>         0.1631
     11 N3         -2.4348   -3.4422   -0.4215 N.ar      1 <0>        -0.4728
     12 C8         -5.8464   -4.9335   -0.4604 C.3       1 <0>         0.1600
     13 N4         -6.2911   -5.0296   -1.8530 N.pl3     1 <0>        -0.6993
     14 C9         -7.3840   -5.8080   -2.1763 C.2       1 <0>         0.4464
     15 C10        -7.8630   -6.0706   -3.4578 C.2       1 <0>        -0.3786
     16 C11        -8.9935   -6.9089   -3.3122 C.2       1 <0>         0.1139
     17 N5         -9.1752   -7.1296   -2.0411 N.2       1 <0>        -0.2950
     18 N6         -8.1856   -6.4622   -1.3114 N.pl3     1 <0>        -0.3952
     19 C12        -8.0453   -6.4705    0.1468 C.3       1 <0>         0.0848
     20 C13        -7.3020   -5.5722   -4.7190 C.2       1 <0>         0.6082
     21 O2         -6.3202   -4.8533   -4.7062 O.2       1 <0>        -0.5421
     22 N7         -7.8742   -5.9106   -5.8914 N.am      1 <0>        -0.6675
     23 C14        -7.2963   -5.4964   -7.0981 C.ar      1 <0>         0.1806
     24 C15        -8.0998   -5.2386   -8.2008 C.ar      1 <0>        -0.1292
     25 C16        -7.5301   -4.8314   -9.3914 C.ar      1 <0>        -0.0649
     26 C17        -6.1550   -4.6784   -9.4896 C.ar      1 <0>         0.0246
     27 C18        -5.3482   -4.9333   -8.3869 C.ar      1 <0>         0.0725
     28 C19        -5.9208   -5.3379   -7.1907 C.ar      1 <0>        -0.0998
     29 O3         -3.9976   -4.7812   -8.4619 O.3       1 <0>        -0.2935
     30 C20        -3.4273   -4.7304   -9.7741 C.3       1 <0>         0.4127
     31 C21        -4.2720   -3.7756  -10.6285 C.3       1 <0>         0.4128
     32 O4         -5.6111   -4.2801  -10.6732 O.3       1 <0>        -0.2953
     33 F1         -4.2674   -2.4997  -10.0548 F         1 <0>        -0.1504
     34 F2         -3.7479   -3.7130  -11.9242 F         1 <0>        -0.1232
     35 F3         -2.1125   -4.2583   -9.6990 F         1 <0>        -0.1226
     36 F4         -3.4387   -6.0083  -10.3433 F         1 <0>        -0.1499
     37 H1          2.7232   -0.4298   -0.6229 H         1 <0>         0.0789
     38 H2          2.3353   -2.0100    0.0990 H         1 <0>         0.0611
     39 H3          2.0708   -1.7368   -1.6399 H         1 <0>         0.0613
     40 H4          0.5096    0.1241   -0.1992 H         1 <0>         0.3980
     41 H5         -1.7536   -0.3457    0.1470 H         1 <0>         0.4149
     42 H6         -4.1510   -0.6464    0.1648 H         1 <0>         0.1400
     43 H7         -6.0375   -2.2531    0.0070 H         1 <0>         0.1402
     44 H8         -3.1910   -5.3573   -0.6950 H         1 <0>         0.1602
     45 H9         -5.4870   -5.9066   -0.1258 H         1 <0>         0.0784
     46 H10        -6.6808   -4.6191    0.1665 H         1 <0>         0.0801
     47 H11        -5.8174   -4.5462   -2.5478 H         1 <0>         0.4328
     48 H12        -9.6009   -7.2984   -4.1158 H         1 <0>         0.1895
     49 H13        -8.5199   -5.5816    0.5625 H         1 <0>         0.0764
     50 H14        -8.5241   -7.3615    0.5529 H         1 <0>         0.0978
     51 H15        -6.9876   -6.4744    0.4101 H         1 <0>         0.0931
     52 H16        -8.6863   -6.4411   -5.8995 H         1 <0>         0.4162
     53 H17        -9.1708   -5.3569   -8.1276 H         1 <0>         0.1502
     54 H18        -8.1568   -4.6320  -10.2480 H         1 <0>         0.1540
     55 H19        -5.2957   -5.5339   -6.3321 H         1 <0>         0.1642
@<TRIPOS>BOND
     1    1    2 1
     2    1   37 1
     3    1   38 1
     4    1   39 1
     5    2    3 am
     6    2   40 1
     7    3    4 2
     8    3    5 am
     9    5    6 1
    10    5   41 1
    11    6   11 ar
    12    6    7 ar
    13    7    8 ar
    14    7   42 1
    15    8    9 ar
    16    8   43 1
    17    9   10 ar
    18    9   12 1
    19   10   11 ar
    20   10   44 1
    21   12   13 1
    22   12   45 1
    23   12   46 1
    24   13   14 1
    25   13   47 1
    26   14   18 1
    27   14   15 2
    28   15   16 1
    29   15   20 1
    30   16   17 2
    31   16   48 1
    32   17   18 1
    33   18   19 1
    34   19   49 1
    35   19   50 1
    36   19   51 1
    37   20   21 2
    38   20   22 am
    39   22   23 1
    40   22   52 1
    41   23   28 ar
    42   23   24 ar
    43   24   25 ar
    44   24   53 1
    45   25   26 ar
    46   25   54 1
    47   26   32 1
    48   26   27 ar
    49   27   28 ar
    50   27   29 1
    51   28   55 1
    52   29   30 1
    53   30   31 1
    54   30   35 1
    55   30   36 1
    56   31   32 1
    57   31   33 1
    58   31   34 1
@<TRIPOS>MOLECULE
CHEMBL247619__1
   56    59     0     0     0
SMALL
USER_CHARGES

@<TRIPOS>ATOM
      1 C1          2.0386   -1.2774   -0.6517 C.3       1 <0>         0.1035
      2 N1          0.6768   -0.8153   -0.3721 N.am      1 <0>        -0.7431
      3 C2         -0.3435   -1.6958   -0.3552 C.2       1 <0>         0.6903
      4 O1         -0.1337   -2.8736   -0.5720 O.2       1 <0>        -0.5215
      5 N2         -1.5963   -1.2707   -0.0980 N.am      1 <0>        -0.6686
      6 C3         -2.6657   -2.1607   -0.1839 C.ar      1 <0>         0.4105
      7 C4         -3.9655   -1.6931   -0.0250 C.ar      1 <0>        -0.2113
      8 C5         -5.0177   -2.5871   -0.1127 C.ar      1 <0>        -0.0137
      9 C6         -4.7325   -3.9238   -0.3574 C.ar      1 <0>        -0.2344
     10 C7         -3.4177   -4.3184   -0.5048 C.ar      1 <0>         0.1731
     11 N3         -2.4349   -3.4421   -0.4214 N.ar      1 <0>        -0.4718
     12 C8         -5.8466   -4.9334   -0.4604 C.3       1 <0>         0.1432
     13 N4         -6.2912   -5.0296   -1.8530 N.pl3     1 <0>        -0.6455
     14 C9         -7.3840   -5.8080   -2.1763 C.2       1 <0>         0.5246
     15 C10        -7.8631   -6.0707   -3.4578 C.2       1 <0>        -0.3243
     16 C11        -8.9935   -6.9089   -3.3122 C.2       1 <0>         0.2556
     17 N5         -9.1752   -7.1296   -2.0411 N.pl3     1 <0>        -0.3800
     18 N6         -8.1856   -6.4622   -1.3114 N.pl3     1 <0>        -0.3656
     19 C12        -8.0454   -6.4704    0.1469 C.3       1 <0>         0.0528
     20 C13        -7.3021   -5.5722   -4.7190 C.2       1 <0>         0.6018
     21 O2         -6.3202   -4.8532   -4.7062 O.2       1 <0>        -0.5096
     22 N7         -7.8742   -5.9107   -5.8914 N.am      1 <0>        -0.6551
     23 C14        -7.2963   -5.4964   -7.0981 C.ar      1 <0>         0.1567
     24 C15        -8.0998   -5.2386   -8.2008 C.ar      1 <0>        -0.1177
     25 C16        -7.5301   -4.8314   -9.3914 C.ar      1 <0>        -0.0652
     26 C17        -6.1549   -4.6785   -9.4896 C.ar      1 <0>         0.0427
     27 C18        -5.3482   -4.9334   -8.3869 C.ar      1 <0>         0.0733
     28 C19        -5.9208   -5.3380   -7.1907 C.ar      1 <0>        -0.0949
     29 O3         -3.9976   -4.7813   -8.4619 O.3       1 <0>        -0.2943
     30 C20        -3.4273   -4.7305   -9.7741 C.3       1 <0>         0.4138
     31 C21        -4.2719   -3.7757  -10.6285 C.3       1 <0>         0.4136
     32 O4         -5.6111   -4.2802  -10.6732 O.3       1 <0>        -0.2936
     33 F1         -4.2673   -2.4998  -10.0548 F         1 <0>        -0.1481
     34 F2         -3.7478   -3.7132  -11.9241 F         1 <0>        -0.1175
     35 F3         -2.1124   -4.2585   -9.6990 F         1 <0>        -0.1180
     36 F4         -3.4387   -6.0084  -10.3433 F         1 <0>        -0.1471
     37 H1          2.7231   -0.4296   -0.6227 H         1 <0>         0.0821
     38 H2          2.3351   -2.0097    0.0992 H         1 <0>         0.0630
     39 H3          2.0707   -1.7367   -1.6397 H         1 <0>         0.0628
     40 H4          0.5094    0.1244   -0.1991 H         1 <0>         0.4000
     41 H5         -1.7538   -0.3454    0.1469 H         1 <0>         0.4182
     42 H6         -4.1512   -0.6462    0.1647 H         1 <0>         0.1453
     43 H7         -6.0377   -2.2530    0.0069 H         1 <0>         0.1415
     44 H8         -3.1911   -5.3571   -0.6949 H         1 <0>         0.1611
     45 H9         -5.4871   -5.9065   -0.1257 H         1 <0>         0.0980
     46 H10        -6.6810   -4.6190    0.1665 H         1 <0>         0.0964
     47 H11        -5.8175   -4.5462   -2.5478 H         1 <0>         0.4519
     48 H12        -9.6008   -7.2985   -4.1158 H         1 <0>         0.2417
     49 H13        -8.5200   -5.5816    0.5625 H         1 <0>         0.1089
     50 H14        -8.5241   -7.3615    0.5529 H         1 <0>         0.1182
     51 H15        -6.9877   -6.4743    0.4101 H         1 <0>         0.1281
     52 H16        -8.6863   -6.4411   -5.8995 H         1 <0>         0.4160
     53 H17        -9.1708   -5.3569   -8.1276 H         1 <0>         0.1526
     54 H18        -8.1568   -4.6320  -10.2480 H         1 <0>         0.1595
     55 H19        -5.2957   -5.5340   -6.3321 H         1 <0>         0.1631
     56 H20        -9.8824   -7.6739   -1.6610 H         1 <0>         0.4772
@<TRIPOS>BOND
     1    1    2 1
     2    1   37 1
     3    1   38 1
     4    1   39 1
     5    2    3 am
     6    2   40 1
     7    3    4 2
     8    3    5 am
     9    5    6 1
    10    5   41 1
    11    6   11 ar
    12    6    7 ar
    13    7    8 ar
    14    7   42 1
    15    8    9 ar
    16    8   43 1
    17    9   10 ar
    18    9   12 1
    19   10   11 ar
    20   10   44 1
    21   12   13 1
    22   12   45 1
    23   12   46 1
    24   13   14 1
    25   13   47 1
    26   14   18 1
    27   14   15 2
    28   15   16 1
    29   15   20 1
    30   16   17 2
    31   16   48 1
    32   17   18 1
    33   17   56 1
    34   18   19 1
    35   19   49 1
    36   19   50 1
    37   19   51 1
    38   20   21 2
    39   20   22 am
    40   22   23 1
    41   22   52 1
    42   23   28 ar
    43   23   24 ar
    44   24   25 ar
    45   24   53 1
    46   25   26 ar
    47   25   54 1
    48   26   32 1
    49   26   27 ar
    50   27   28 ar
    51   27   29 1
    52   28   55 1
    53   29   30 1
    54   30   31 1
    55   30   35 1
    56   30   36 1
    57   31   32 1
    58   31   33 1
    59   31   34 1
@<TRIPOS>MOLECULE
CHEMBL247618
   47    50     0     0     0
SMALL
USER_CHARGES

@<TRIPOS>ATOM
      1 C1         -0.0046    1.4874   -0.0348 C.3       1 <0>         0.0844
      2 N1          0.0132    0.0225   -0.0325 N.am      1 <0>        -0.7146
      3 C2          0.5941   -0.6459   -1.0485 C.2       1 <0>         0.5696
      4 O1          1.1030   -0.0335   -1.9664 O.2       1 <0>        -0.5289
      5 C3          0.6122   -2.1275   -1.0462 C.ar      1 <0>         0.0785
      6 C4          1.2192   -2.8125   -2.0965 C.ar      1 <0>        -0.0898
      7 C5          1.2281   -4.1983   -2.0804 C.ar      1 <0>        -0.0714
      8 C6          0.6295   -4.8510   -1.0139 C.ar      1 <0>        -0.1265
      9 C7          0.0442   -4.1055   -0.0033 C.ar      1 <0>         0.1016
     10 N2          0.0547   -2.7908   -0.0409 N.ar      1 <0>        -0.4524
     11 C8          1.8735   -4.9778   -3.1970 C.3       1 <0>         0.1580
     12 N3          3.2832   -5.2147   -2.8759 N.pl3     1 <0>        -0.7030
     13 C9          4.0906   -5.9199   -3.7644 C.2       1 <0>         0.2872
     14 C10         3.6137   -6.4123   -4.9640 C.2       1 <0>        -0.2383
     15 C11         4.4562   -7.0888   -5.7785 C.2       1 <0>        -0.1630
     16 S1          5.9222   -7.0870   -4.9590 S.3       1 <0>         0.1974
     17 C12         5.4382   -6.1729   -3.5073 C.2       1 <0>        -0.3829
     18 C13         6.2171   -5.8024   -2.3857 C.2       1 <0>         0.6254
     19 O2          5.7112   -5.1722   -1.4742 O.2       1 <0>        -0.5339
     20 N4          7.5187   -6.1468   -2.3258 N.am      1 <0>        -0.6704
     21 C14         8.3135   -5.6982   -1.2638 C.ar      1 <0>         0.1738
     22 C15         7.7681   -5.5733    0.0071 C.ar      1 <0>        -0.1001
     23 C16         8.5513   -5.1313    1.0561 C.ar      1 <0>        -0.0603
     24 C17         9.8825   -4.8114    0.8433 C.ar      1 <0>         0.0088
     25 C18        10.4325   -4.9356   -0.4303 C.ar      1 <0>         0.0480
     26 C19         9.6482   -5.3838   -1.4801 C.ar      1 <0>        -0.1112
     27 O3         11.7448   -4.5635   -0.3772 O.3       1 <0>        -0.2856
     28 C20        11.8852   -3.8226    0.8494 C.3       1 <0>         0.5711
     29 O4         10.8514   -4.3611    1.6945 O.3       1 <0>        -0.2851
     30 F1         11.6761   -2.4575    0.6259 F         1 <0>        -0.1524
     31 F2         13.1461   -4.0420    1.4145 F         1 <0>        -0.1155
     32 H1          1.0185    1.8632   -0.0464 H         1 <0>         0.0635
     33 H2         -0.5324    1.8429   -0.9197 H         1 <0>         0.0634
     34 H3         -0.5133    1.8459    0.8601 H         1 <0>         0.0802
     35 H4         -0.3930   -0.4663    0.7002 H         1 <0>         0.4132
     36 H5          1.6760   -2.2713   -2.9119 H         1 <0>         0.1508
     37 H6          0.6190   -5.9301   -0.9715 H         1 <0>         0.1451
     38 H7         -0.4231   -4.6108    0.8291 H         1 <0>         0.1690
     39 H8          1.3624   -5.9332   -3.3158 H         1 <0>         0.0830
     40 H9          1.8027   -4.4100   -4.1247 H         1 <0>         0.0821
     41 H10         3.6540   -4.8802   -2.0443 H         1 <0>         0.4216
     42 H11         2.5828   -6.2597   -5.2475 H         1 <0>         0.1420
     43 H12         4.2355   -7.5307   -6.7389 H         1 <0>         0.1941
     44 H13         7.9050   -6.7054   -3.0184 H         1 <0>         0.4130
     45 H14         6.7307   -5.8216    0.1758 H         1 <0>         0.1624
     46 H15         8.1249   -5.0346    2.0437 H         1 <0>         0.1492
     47 H16        10.0737   -5.4847   -2.4676 H         1 <0>         0.1487
@<TRIPOS>BOND
     1    1    2 1
     2    1   32 1
     3    1   33 1
     4    1   34 1
     5    2    3 am
     6    2   35 1
     7    3    4 2
     8    3    5 1
     9    5   10 ar
    10    5    6 ar
    11    6    7 ar
    12    6   36 1
    13    7    8 ar
    14    7   11 1
    15    8    9 ar
    16    8   37 1
    17    9   10 ar
    18    9   38 1
    19   11   12 1
    20   11   39 1
    21   11   40 1
    22   12   13 1
    23   12   41 1
    24   13   17 2
    25   13   14 1
    26   14   15 2
    27   14   42 1
    28   15   16 1
    29   15   43 1
    30   16   17 1
    31   17   18 1
    32   18   19 2
    33   18   20 am
    34   20   21 1
    35   20   44 1
    36   21   26 ar
    37   21   22 ar
    38   22   23 ar
    39   22   45 1
    40   23   24 ar
    41   23   46 1
    42   24   29 1
    43   24   25 ar
    44   25   26 ar
    45   25   27 1
    46   26   47 1
    47   27   28 1
    48   28   29 1
    49   28   30 1
    50   28   31 1
@<TRIPOS>MOLECULE
CHEMBL514806
   54    57     0     0     0
SMALL
USER_CHARGES

@<TRIPOS>ATOM
      1 C1         10.1970    4.2172   -8.3840 C.ar      1 <0>        -0.1489
      2 C2          9.8511    3.5181   -7.2390 C.ar      1 <0>        -0.0878
      3 C3          8.4997    3.3690   -6.9379 C.ar      1 <0>         0.0957
      4 C4          7.5540    3.9233   -7.7913 C.ar      1 <0>         0.0781
      5 N1          7.9266    4.5811   -8.8707 N.ar      1 <0>        -0.4627
      6 C5          9.1980    4.7398   -9.1837 C.ar      1 <0>         0.0789
      7 N2          8.1003    2.6712   -5.7935 N.am      1 <0>        -0.6455
      8 C6          8.9258    2.5905   -4.7312 C.2       1 <0>         0.5761
      9 O1          9.9707    3.2109   -4.7250 O.2       1 <0>        -0.5069
     10 C7          8.5593    1.7454   -3.5709 C.ar      1 <0>         0.1099
     11 C8          9.4133    1.6711   -2.4752 C.ar      1 <0>        -0.1838
     12 C9          9.0538    0.8726   -1.3925 C.ar      1 <0>         0.1602
     13 C10         7.8480    0.1788   -1.4537 C.ar      1 <0>        -0.1714
     14 C11         7.0520    0.3033   -2.5778 C.ar      1 <0>         0.1375
     15 N3          7.4158    1.0699   -3.5840 N.ar      1 <0>        -0.4801
     16 O2          9.8591    0.7726   -0.3046 O.3       1 <0>        -0.2405
     17 C12        10.9682    1.5575   -0.2572 C.ar      1 <0>         0.0579
     18 C13        10.8389    2.9360   -0.1672 C.ar      1 <0>        -0.1125
     19 C14        11.9650    3.7336   -0.1190 C.ar      1 <0>        -0.0983
     20 C15        13.2269    3.1560   -0.1606 C.ar      1 <0>         0.1686
     21 C16        13.3557    1.7764   -0.2506 C.ar      1 <0>        -0.1255
     22 C17        12.2289    0.9794   -0.2930 C.ar      1 <0>        -0.0921
     23 N4         14.3700    3.9649   -0.1122 N.am      1 <0>        -0.6785
     24 C18        14.3672    5.0919    0.6270 C.2       1 <0>         0.7072
     25 O3         13.4102    5.3561    1.3290 O.2       1 <0>        -0.5485
     26 N5         15.4252    5.9259    0.5881 N.am      1 <0>        -0.6795
     27 C19        15.4727    7.0365    1.4391 C.ar      1 <0>         0.1695
     28 C20        14.9405    6.9550    2.7193 C.ar      1 <0>        -0.0745
     29 C21        14.9886    8.0519    3.5568 C.ar      1 <0>        -0.0871
     30 C22        15.5660    9.2319    3.1212 C.ar      1 <0>        -0.0077
     31 C23        16.0969    9.3157    1.8462 C.ar      1 <0>        -0.1562
     32 C24        16.0569    8.2194    1.0067 C.ar      1 <0>        -0.0877
     33 C25        16.7248   10.6021    1.3752 C.3       1 <0>         0.5112
     34 F1         17.1864   10.4430    0.0642 F         1 <0>        -0.1743
     35 F2         15.7733   11.6269    1.4135 F         1 <0>        -0.1670
     36 F3         17.7978   10.9305    2.2107 F         1 <0>        -0.1676
     37 Cl1        15.6238   10.6094    4.1761 Cl        1 <0>        -0.0391
     38 H1         11.2354    4.3562   -8.6463 H         1 <0>         0.1400
     39 H2         10.6108    3.0987   -6.5960 H         1 <0>         0.1523
     40 H3          6.5030    3.8138   -7.5681 H         1 <0>         0.1593
     41 H4          9.4622    5.2856  -10.0774 H         1 <0>         0.1593
     42 H5          7.2293    2.2453   -5.7644 H         1 <0>         0.4260
     43 H6         10.3409    2.2240   -2.4646 H         1 <0>         0.1561
     44 H7          7.5378   -0.4500   -0.6322 H         1 <0>         0.1545
     45 H8          6.1162   -0.2335   -2.6292 H         1 <0>         0.1772
     46 H9          9.8573    3.3852   -0.1353 H         1 <0>         0.1352
     47 H10        11.8643    4.8067   -0.0494 H         1 <0>         0.1445
     48 H11        14.3370    1.3266   -0.2829 H         1 <0>         0.1396
     49 H12        12.3290   -0.0940   -0.3585 H         1 <0>         0.1414
     50 H13        15.1633    3.7139   -0.6107 H         1 <0>         0.4132
     51 H14        16.1537    5.7567   -0.0295 H         1 <0>         0.4148
     52 H15        14.4892    6.0347    3.0595 H         1 <0>         0.1544
     53 H16        14.5749    7.9891    4.5525 H         1 <0>         0.1524
     54 H17        16.4756    8.2838    0.0133 H         1 <0>         0.1525
@<TRIPOS>BOND
     1    1    6 ar
     2    1    2 ar
     3    1   38 1
     4    2    3 ar
     5    2   39 1
     6    3    4 ar
     7    3    7 1
     8    4    5 ar
     9    4   40 1
    10    5    6 ar
    11    6   41 1
    12    7    8 am
    13    7   42 1
    14    8    9 2
    15    8   10 1
    16   10   15 ar
    17   10   11 ar
    18   11   12 ar
    19   11   43 1
    20   12   13 ar
    21   12   16 1
    22   13   14 ar
    23   13   44 1
    24   14   15 ar
    25   14   45 1
    26   16   17 1
    27   17   22 ar
    28   17   18 ar
    29   18   19 ar
    30   18   46 1
    31   19   20 ar
    32   19   47 1
    33   20   21 ar
    34   20   23 1
    35   21   22 ar
    36   21   48 1
    37   22   49 1
    38   23   24 am
    39   23   50 1
    40   24   25 2
    41   24   26 am
    42   26   27 1
    43   26   51 1
    44   27   32 ar
    45   27   28 ar
    46   28   29 ar
    47   28   52 1
    48   29   30 ar
    49   29   53 1
    50   30   31 ar
    51   30   37 1
    52   31   32 ar
    53   31   33 1
    54   32   54 1
    55   33   34 1
    56   33   35 1
    57   33   36 1
@<TRIPOS>MOLECULE
CHEMBL524635
   54    58     0     0     0
SMALL
USER_CHARGES

@<TRIPOS>ATOM
      1 C1         -2.8393    2.8197   -0.0437 C.3       1 <0>        -0.1665
      2 C2         -3.2521    2.0985   -1.3284 C.3       1 <0>         0.1302
      3 N1         -4.5786    1.5030   -1.1494 N.pl3     1 <0>        -0.3625
      4 C3         -5.6481    1.7089   -1.9434 C.2       1 <0>         0.0767
      5 C4         -6.6865    0.9788   -1.4430 C.2       1 <0>        -0.1940
      6 C5         -6.2130    0.3012   -0.2900 C.2       1 <0>         0.1411
      7 N2         -4.9477    0.6194   -0.1283 N.2       1 <0>        -0.2737
      8 C6         -7.0029   -0.6080    0.5754 C.ar      1 <0>        -0.0058
      9 C7         -7.9592   -1.4527    0.0130 C.ar      1 <0>        -0.0799
     10 C8         -8.6932   -2.2986    0.8198 C.ar      1 <0>        -0.1162
     11 C9         -8.4837   -2.3119    2.1860 C.ar      1 <0>        -0.1109
     12 C10        -7.5333   -1.4733    2.7552 C.ar      1 <0>         0.1102
     13 C11        -6.7875   -0.6245    1.9509 C.ar      1 <0>        -0.0387
     14 N3         -7.3249   -1.4891    4.1384 N.pl3     1 <0>        -0.6232
     15 C12        -7.1875   -0.3300    4.8124 C.2       1 <0>         0.5445
     16 S1         -7.1610    1.1562    3.9630 S.2       1 <0>        -0.5773
     17 N4         -7.0711   -0.3410    6.1551 N.pl3     1 <0>        -0.6266
     18 C13        -7.0193    0.8646    6.8625 C.ar      1 <0>         0.1197
     19 C14        -7.8519    1.9173    6.5055 C.ar      1 <0>        -0.0705
     20 C15        -7.7986    3.1062    7.2063 C.ar      1 <0>        -0.1122
     21 C16        -6.9171    3.2493    8.2621 C.ar      1 <0>        -0.1118
     22 C17        -6.0864    2.2032    8.6198 C.ar      1 <0>        -0.1159
     23 C18        -6.1391    1.0096    7.9270 C.ar      1 <0>        -0.1224
     24 C19        -8.0563    0.9071   -2.0008 C.ar      1 <0>         0.0911
     25 C20        -8.3300    0.1580   -3.1461 C.ar      1 <0>        -0.1999
     26 C21        -9.6231    0.1179   -3.6339 C.ar      1 <0>         0.1383
     27 N5        -10.6057    0.7687   -3.0459 N.ar      1 <0>        -0.5031
     28 C22       -10.4114    1.4984   -1.9543 C.ar      1 <0>         0.2872
     29 C23        -9.1263    1.5873   -1.3902 C.ar      1 <0>        -0.1333
     30 C24        -9.2528    2.4450   -0.2133 C.2       1 <0>        -0.1759
     31 C25       -10.5441    2.8055   -0.1308 C.2       1 <0>         0.0560
     32 N6        -11.2476    2.2553   -1.1690 N.pl3     1 <0>        -0.5840
     33 H1        -12.1983    2.3732   -1.3212 H         1 <0>         0.4185
     34 H2         -1.8524    3.2628   -0.1769 H         1 <0>         0.0757
     35 H3         -3.5623    3.6039    0.1811 H         1 <0>         0.0619
     36 H4         -2.8092    2.1063    0.7799 H         1 <0>         0.0716
     37 H5         -3.2823    2.8120   -2.1519 H         1 <0>         0.0977
     38 H6         -2.5292    1.3144   -1.5532 H         1 <0>         0.0867
     39 H7         -5.6779    2.3396   -2.8196 H         1 <0>         0.1770
     40 H8         -8.1258   -1.4448   -1.0540 H         1 <0>         0.1273
     41 H9         -9.4336   -2.9518    0.3823 H         1 <0>         0.1305
     42 H10        -9.0607   -2.9757    2.8128 H         1 <0>         0.1247
     43 H11        -6.0451    0.0249    2.3908 H         1 <0>         0.1565
     44 H12        -7.2793   -2.3341    4.6125 H         1 <0>         0.4081
     45 H13        -7.0232   -1.1850    6.6309 H         1 <0>         0.4073
     46 H14        -8.5401    1.8064    5.6806 H         1 <0>         0.1449
     47 H15        -8.4459    3.9251    6.9292 H         1 <0>         0.1279
     48 H16        -6.8771    4.1801    8.8083 H         1 <0>         0.1247
     49 H17        -5.3985    2.3184    9.4444 H         1 <0>         0.1272
     50 H18        -5.4932    0.1915    8.2097 H         1 <0>         0.1230
     51 H19        -7.5407   -0.3838   -3.6458 H         1 <0>         0.1357
     52 H20        -9.8329   -0.4620   -4.5205 H         1 <0>         0.1597
     53 H21        -8.4600    2.7332    0.4611 H         1 <0>         0.1467
     54 H22       -10.9632    3.4416    0.6348 H         1 <0>         0.1758
@<TRIPOS>BOND
     1    1    2 1
     2    1   34 1
     3    1   35 1
     4    1   36 1
     5    2    3 1
     6    2   37 1
     7    2   38 1
     8    3    7 1
     9    3    4 1
    10    4    5 2
    11    4   39 1
    12    5    6 1
    13    5   24 1
    14    6    7 2
    15    6    8 1
    16    8   13 ar
    17    8    9 ar
    18    9   10 ar
    19    9   40 1
    20   10   11 ar
    21   10   41 1
    22   11   12 ar
    23   11   42 1
    24   12   13 ar
    25   12   14 1
    26   13   43 1
    27   14   15 1
    28   14   44 1
    29   15   16 2
    30   15   17 1
    31   17   18 1
    32   17   45 1
    33   18   23 ar
    34   18   19 ar
    35   19   20 ar
    36   19   46 1
    37   20   21 ar
    38   20   47 1
    39   21   22 ar
    40   21   48 1
    41   22   23 ar
    42   22   49 1
    43   23   50 1
    44   24   29 ar
    45   24   25 ar
    46   25   26 ar
    47   25   51 1
    48   26   27 ar
    49   26   52 1
    50   27   28 ar
    51   28   32 1
    52   28   29 ar
    53   29   30 1
    54   30   31 2
    55   30   53 1
    56   31   32 1
    57   31   54 1
    58   32   33 1
@<TRIPOS>MOLECULE
CHEMBL456350
   58    62     0     0     0
SMALL
USER_CHARGES

@<TRIPOS>ATOM
      1 C1          1.5453   -1.0983   -1.2492 C.3       1 <0>        -0.1670
      2 C2          0.6013   -1.6331   -0.1705 C.3       1 <0>         0.1298
      3 N1          1.0452   -1.1626    1.1440 N.pl3     1 <0>        -0.3629
      4 C3          0.2913   -0.4890    2.0354 C.2       1 <0>         0.0770
      5 C4          1.0658   -0.2344    3.1295 C.2       1 <0>        -0.1927
      6 C5          2.3493   -0.7843    2.8789 C.2       1 <0>         0.1373
      7 N2          2.3222   -1.3419    1.6887 N.2       1 <0>        -0.2743
      8 C6          3.5125   -0.7424    3.7979 C.ar      1 <0>         0.0092
      9 C7          3.3374   -0.9898    5.1589 C.ar      1 <0>        -0.1003
     10 C8          4.4212   -0.9509    6.0128 C.ar      1 <0>        -0.0996
     11 C9          5.6822   -0.6666    5.5232 C.ar      1 <0>        -0.1355
     12 C10         5.8660   -0.4184    4.1687 C.ar      1 <0>         0.1562
     13 C11         4.7835   -0.4617    3.3031 C.ar      1 <0>        -0.0875
     14 N3          7.1443   -0.1305    3.6770 N.am      1 <0>        -0.6803
     15 C12         7.2953    0.7469    2.6652 C.2       1 <0>         0.7028
     16 O1          6.3171    1.2260    2.1249 O.2       1 <0>        -0.5453
     17 N4          8.5306    1.0933    2.2522 N.am      1 <0>        -0.6816
     18 C13         8.6902    2.0837    1.2767 C.ar      1 <0>         0.2026
     19 C14         9.7218    1.9884    0.3511 C.ar      1 <0>        -0.1826
     20 C15         9.8792    2.9661   -0.6119 C.ar      1 <0>        -0.0592
     21 C16         9.0117    4.0410   -0.6573 C.ar      1 <0>        -0.2242
     22 C17         7.9795    4.1413    0.2647 C.ar      1 <0>         0.1474
     23 C18         7.8148    3.1592    1.2290 C.ar      1 <0>        -0.1526
     24 O2          7.1278    5.1994    0.2194 O.3       1 <0>        -0.3144
     25 C19         7.3539    6.1709   -0.8039 C.3       1 <0>         0.0270
     26 C20         0.6442    0.4845    4.3534 C.ar      1 <0>         0.0908
     27 C21        -0.3230   -0.0496    5.2060 C.ar      1 <0>        -0.1998
     28 C22        -0.6880    0.6544    6.3387 C.ar      1 <0>         0.1391
     29 N5         -0.1469    1.8181    6.6353 N.ar      1 <0>        -0.5037
     30 C23         0.7776    2.3798    5.8661 C.ar      1 <0>         0.2875
     31 C24         1.2097    1.7261    4.6984 C.ar      1 <0>        -0.1332
     32 C25         2.2210    2.5912    4.0938 C.2       1 <0>        -0.1775
     33 C26         2.3437    3.6644    4.8921 C.2       1 <0>         0.0562
     34 N6          1.4816    3.5571    5.9508 N.pl3     1 <0>        -0.5836
     35 H1          1.3896    4.2105    6.6618 H         1 <0>         0.4186
     36 H2          2.5565   -1.4570   -1.0574 H         1 <0>         0.0714
     37 H3          1.2150   -1.4484   -2.2272 H         1 <0>         0.0765
     38 H4          1.5369   -0.0085   -1.2316 H         1 <0>         0.0617
     39 H5         -0.4100   -1.2744   -0.3623 H         1 <0>         0.0983
     40 H6          0.6097   -2.7230   -0.1881 H         1 <0>         0.0875
     41 H7         -0.7417   -0.2015    1.9063 H         1 <0>         0.1783
     42 H8          2.3535   -1.2115    5.5452 H         1 <0>         0.1238
     43 H9          4.2835   -1.1427    7.0667 H         1 <0>         0.1291
     44 H10         6.5269   -0.6370    6.1956 H         1 <0>         0.1261
     45 H11         4.9250   -0.2738    2.2490 H         1 <0>         0.1441
     46 H12         7.9216   -0.5625    4.0644 H         1 <0>         0.4087
     47 H13         9.3091    0.6560    2.6313 H         1 <0>         0.4104
     48 H14        10.4012    1.1496    0.3847 H         1 <0>         0.1275
     49 H15        10.6820    2.8905   -1.3304 H         1 <0>         0.1304
     50 H16         9.1375    4.8041   -1.4112 H         1 <0>         0.1293
     51 H17         7.0096    3.2335    1.9449 H         1 <0>         0.1435
     52 H18         8.3485    6.6005   -0.6836 H         1 <0>         0.0564
     53 H19         7.2801    5.6934   -1.7809 H         1 <0>         0.0563
     54 H20         6.6057    6.9598   -0.7275 H         1 <0>         0.1008
     55 H21        -0.7814   -1.0018    4.9835 H         1 <0>         0.1353
     56 H22        -1.4366    0.2395    6.9972 H         1 <0>         0.1597
     57 H23         2.7657    2.4032    3.1803 H         1 <0>         0.1457
     58 H24         3.0149    4.4927    4.7197 H         1 <0>         0.1756
@<TRIPOS>BOND
     1    1    2 1
     2    1   36 1
     3    1   37 1
     4    1   38 1
     5    2    3 1
     6    2   39 1
     7    2   40 1
     8    3    7 1
     9    3    4 1
    10    4    5 2
    11    4   41 1
    12    5    6 1
    13    5   26 1
    14    6    7 2
    15    6    8 1
    16    8   13 ar
    17    8    9 ar
    18    9   10 ar
    19    9   42 1
    20   10   11 ar
    21   10   43 1
    22   11   12 ar
    23   11   44 1
    24   12   13 ar
    25   12   14 1
    26   13   45 1
    27   14   15 am
    28   14   46 1
    29   15   16 2
    30   15   17 am
    31   17   18 1
    32   17   47 1
    33   18   23 ar
    34   18   19 ar
    35   19   20 ar
    36   19   48 1
    37   20   21 ar
    38   20   49 1
    39   21   22 ar
    40   21   50 1
    41   22   23 ar
    42   22   24 1
    43   23   51 1
    44   24   25 1
    45   25   52 1
    46   25   53 1
    47   25   54 1
    48   26   31 ar
    49   26   27 ar
    50   27   28 ar
    51   27   55 1
    52   28   29 ar
    53   28   56 1
    54   29   30 ar
    55   30   34 1
    56   30   31 ar
    57   31   32 1
    58   32   33 2
    59   32   57 1
    60   33   34 1
    61   33   58 1
    62   34   35 1
@<TRIPOS>MOLECULE
CHEMBL381421
   38    41     0     0     0
SMALL
USER_CHARGES

@<TRIPOS>ATOM
      1 C1          0.0145    1.3599    0.5788 C.ar      1 <0>        -0.1042
      2 C2          1.1861    2.0789    0.4216 C.ar      1 <0>        -0.1161
      3 C3          2.3871    1.4197    0.2596 C.ar      1 <0>        -0.0729
      4 C4          2.4186    0.0243    0.2550 C.ar      1 <0>        -0.0252
      5 C5          1.2332   -0.6950    0.4145 C.ar      1 <0>        -0.1082
      6 C6          0.0388   -0.0234    0.5751 C.ar      1 <0>        -0.1158
      7 C7          3.7021   -0.6888    0.0814 C.2       1 <0>         0.2743
      8 N1          3.8566   -2.0454    0.0547 N.pl3     1 <0>        -0.5500
      9 H1          3.1529   -2.7068    0.1448 H         1 <0>         0.4263
     10 C8          5.1957   -2.2982   -0.1241 C.2       1 <0>         0.0497
     11 C9          5.8202   -1.0638   -0.2013 C.2       1 <0>         0.0626
     12 N2          4.8741   -0.1186   -0.0772 N.2       1 <0>        -0.4502
     13 C10         7.2696   -0.8288   -0.3925 C.ar      1 <0>         0.0009
     14 C11         8.0130   -1.5886   -1.3066 C.ar      1 <0>        -0.1041
     15 C12         9.3617   -1.3108   -1.4303 C.ar      1 <0>         0.0454
     16 N3          9.9085   -0.3558   -0.7000 N.ar      1 <0>        -0.2419
     17 N4          9.2343    0.3431    0.1381 N.ar      1 <0>        -0.2381
     18 C13         7.9430    0.1627    0.3283 C.ar      1 <0>         0.0663
     19 C14         5.8410   -3.6227   -0.2151 C.ar      1 <0>        -0.0066
     20 C15         6.9901   -3.8954    0.5314 C.ar      1 <0>        -0.0880
     21 C16         7.5905   -5.1342    0.4440 C.ar      1 <0>        -0.0878
     22 C17         7.0584   -6.1090   -0.3819 C.ar      1 <0>        -0.0551
     23 C18         5.9159   -5.8467   -1.1280 C.ar      1 <0>         0.1247
     24 C19         5.3020   -4.6092   -1.0430 C.ar      1 <0>        -0.1219
     25 O1          5.3977   -6.8079   -1.9375 O.3       1 <0>        -0.4831
     26 Cl1         7.8215   -7.6648   -0.4865 Cl        1 <0>        -0.0453
     27 H2         -0.9226    1.8808    0.7093 H         1 <0>         0.1285
     28 H3          1.1603    3.1586    0.4253 H         1 <0>         0.1321
     29 H4          3.3008    1.9821    0.1363 H         1 <0>         0.1391
     30 H5          1.2507   -1.7748    0.4115 H         1 <0>         0.1177
     31 H6         -0.8792   -0.5788    0.6985 H         1 <0>         0.1296
     32 H7          7.5475   -2.3658   -1.8946 H         1 <0>         0.1476
     33 H8          9.9680   -1.8747   -2.1237 H         1 <0>         0.1754
     34 H9          7.4083    0.7745    1.0398 H         1 <0>         0.1751
     35 H10         7.4082   -3.1367    1.1763 H         1 <0>         0.1371
     36 H11         8.4787   -5.3439    1.0215 H         1 <0>         0.1463
     37 H12         4.4113   -4.4057   -1.6190 H         1 <0>         0.1392
     38 H13         4.7459   -7.3767   -1.5053 H         1 <0>         0.3966
@<TRIPOS>BOND
     1    1    6 ar
     2    1    2 ar
     3    1   27 1
     4    2    3 ar
     5    2   28 1
     6    3    4 ar
     7    3   29 1
     8    4    5 ar
     9    4    7 1
    10    5    6 ar
    11    5   30 1
    12    6   31 1
    13    7   12 2
    14    7    8 1
    15    8    9 1
    16    8   10 1
    17   10   11 2
    18   10   19 1
    19   11   12 1
    20   11   13 1
    21   13   18 ar
    22   13   14 ar
    23   14   15 ar
    24   14   32 1
    25   15   16 ar
    26   15   33 1
    27   16   17 ar
    28   17   18 ar
    29   18   34 1
    30   19   24 ar
    31   19   20 ar
    32   20   21 ar
    33   20   35 1
    34   21   22 ar
    35   21   36 1
    36   22   23 ar
    37   22   26 1
    38   23   24 ar
    39   23   25 1
    40   24   37 1
    41   25   38 1
@<TRIPOS>MOLECULE
CHEMBL381421__1
   38    41     0     0     0
SMALL
USER_CHARGES

@<TRIPOS>ATOM
      1 C1         -0.2638    0.8159   -0.5599 C.ar      1 <0>        -0.1035
      2 C2          0.8337    1.6584   -0.5534 C.ar      1 <0>        -0.1167
      3 C3          2.1050    1.1389   -0.4231 C.ar      1 <0>        -0.0722
      4 C4          2.2828   -0.2398   -0.2976 C.ar      1 <0>        -0.0267
      5 C5          1.1714   -1.0840   -0.3049 C.ar      1 <0>        -0.1074
      6 C6         -0.0946   -0.5517   -0.4359 C.ar      1 <0>        -0.1156
      7 C7          3.6424   -0.8034   -0.1580 C.2       1 <0>         0.2798
      8 N1          4.7568   -0.1077   -0.1383 N.2       1 <0>        -0.4548
      9 H1          3.3043   -2.8612   -0.0023 H         1 <0>         0.4265
     10 C8          5.8022   -0.9373    0.0014 C.2       1 <0>         0.0848
     11 C9          5.3085   -2.2298    0.0732 C.2       1 <0>         0.0260
     12 N2          3.9391   -2.1281   -0.0233 N.pl3     1 <0>        -0.5492
     13 C10         6.0940   -3.4686    0.2284 C.ar      1 <0>        -0.0175
     14 C11         7.1053   -3.5714    1.1974 C.ar      1 <0>        -0.0899
     15 C12         7.7977   -4.7645    1.2821 C.ar      1 <0>         0.0506
     16 N3          7.4994   -5.7605    0.4674 N.ar      1 <0>        -0.2367
     17 N4          6.5774   -5.6748   -0.4201 N.ar      1 <0>        -0.2318
     18 C13         5.8534   -4.5861   -0.5816 C.ar      1 <0>         0.0491
     19 C14         7.2287   -0.5420    0.0667 C.ar      1 <0>         0.0110
     20 C15         8.1910   -1.2788   -0.6239 C.ar      1 <0>        -0.1005
     21 C16         9.5189   -0.9087   -0.5615 C.ar      1 <0>        -0.0922
     22 C17         9.8998    0.1921    0.1852 C.ar      1 <0>        -0.0584
     23 C18         8.9477    0.9308    0.8762 C.ar      1 <0>         0.1204
     24 C19         7.6122    0.5704    0.8137 C.ar      1 <0>        -0.1028
     25 O1          9.3263    2.0113    1.6090 O.3       1 <0>        -0.4848
     26 Cl1        11.5724    0.6510    0.2592 Cl        1 <0>        -0.0516
     27 H2         -1.2573    1.2280   -0.6577 H         1 <0>         0.1287
     28 H3          0.6948    2.7250   -0.6509 H         1 <0>         0.1320
     29 H4          2.9609    1.7976   -0.4185 H         1 <0>         0.1388
     30 H5          1.3022   -2.1518   -0.2085 H         1 <0>         0.1182
     31 H6         -0.9554   -1.2039   -0.4418 H         1 <0>         0.1300
     32 H7          7.3347   -2.7454    1.8543 H         1 <0>         0.1545
     33 H8          8.5829   -4.8823    2.0142 H         1 <0>         0.1801
     34 H9          5.0820   -4.5537   -1.3368 H         1 <0>         0.1704
     35 H10         7.8968   -2.1389   -1.2070 H         1 <0>         0.1296
     36 H11        10.2629   -1.4800   -1.0967 H         1 <0>         0.1418
     37 H12         6.8703    1.1469    1.3462 H         1 <0>         0.1443
     38 H13         9.3250    2.8421    1.1142 H         1 <0>         0.3960
@<TRIPOS>BOND
     1    1    6 ar
     2    1    2 ar
     3    1   27 1
     4    2    3 ar
     5    2   28 1
     6    3    4 ar
     7    3   29 1
     8    4    5 ar
     9    4    7 1
    10    5    6 ar
    11    5   30 1
    12    6   31 1
    13    7    8 2
    14    7   12 1
    15    8   10 1
    16    9   12 1
    17   10   19 1
    18   10   11 2
    19   11   13 1
    20   11   12 1
    21   13   18 ar
    22   13   14 ar
    23   14   15 ar
    24   14   32 1
    25   15   16 ar
    26   15   33 1
    27   16   17 ar
    28   17   18 ar
    29   18   34 1
    30   19   24 ar
    31   19   20 ar
    32   20   21 ar
    33   20   35 1
    34   21   22 ar
    35   21   36 1
    36   22   23 ar
    37   22   26 1
    38   23   24 ar
    39   23   25 1
    40   24   37 1
    41   25   38 1
@<TRIPOS>MOLECULE
CHEMBL200258
   40    43     0     0     0
SMALL
USER_CHARGES

@<TRIPOS>ATOM
      1 C1         -0.0167    1.3794    0.0096 C.ar      1 <0>        -0.1038
      2 C2          1.1684    2.0934    0.0021 C.ar      1 <0>        -0.1169
      3 C3          2.3774    1.4292   -0.0130 C.ar      1 <0>        -0.0712
      4 C4          2.4034    0.0337   -0.0208 C.ar      1 <0>        -0.0262
      5 C5          1.2043   -0.6806   -0.0131 C.ar      1 <0>        -0.1070
      6 C6          0.0021   -0.0041    0.0020 C.ar      1 <0>        -0.1163
      7 C7          3.6955   -0.6848   -0.0375 C.2       1 <0>         0.2853
      8 N1          3.8457   -2.0394   -0.0517 N.pl3     1 <0>        -0.5462
      9 H1          3.1334   -2.6978   -0.0527 H         1 <0>         0.4260
     10 C8          5.1988   -2.2980   -0.0649 C.2       1 <0>         0.0200
     11 C9          5.8317   -1.0648   -0.0581 C.2       1 <0>         0.1125
     12 N2          4.8815   -0.1185   -0.0467 N.2       1 <0>        -0.4605
     13 C10         7.2954   -0.8335   -0.0670 C.ar      1 <0>         0.0177
     14 C11         8.1461   -1.7106    0.6058 C.ar      1 <0>        -0.0594
     15 C12         9.5087   -1.4931    0.5961 C.ar      1 <0>        -0.1036
     16 C13        10.0348   -0.4064   -0.0798 C.ar      1 <0>        -0.0554
     17 C14         9.1943    0.4720   -0.7518 C.ar      1 <0>         0.1106
     18 C15         7.8263    0.2577   -0.7524 C.ar      1 <0>        -0.1002
     19 O1          9.7153    1.5388   -1.4138 O.3       1 <0>        -0.4852
     20 Cl1        11.7502   -0.1395   -0.0874 Cl        1 <0>        -0.0589
     21 C16         5.8447   -3.6221   -0.0824 C.ar      1 <0>         0.2925
     22 C17         5.1752   -4.7482    0.4171 C.ar      1 <0>        -0.2881
     23 C18         5.8221   -5.9681    0.3792 C.ar      1 <0>         0.2054
     24 N3          7.0459   -6.0384   -0.1236 N.ar      1 <0>        -0.5710
     25 C19         7.6569   -4.9585   -0.5895 C.ar      1 <0>         0.5768
     26 N4          7.0746   -3.7703   -0.5789 N.ar      1 <0>        -0.5485
     27 N5          8.9358   -5.0777   -1.1057 N.pl3     1 <0>        -0.8164
     28 H2         -0.9605    1.9041    0.0260 H         1 <0>         0.1283
     29 H3          1.1469    3.1732    0.0078 H         1 <0>         0.1319
     30 H4          3.3017    1.9877   -0.0192 H         1 <0>         0.1397
     31 H5          1.2176   -1.7605   -0.0191 H         1 <0>         0.1185
     32 H6         -0.9265   -0.5556    0.0083 H         1 <0>         0.1296
     33 H7          7.7384   -2.5595    1.1345 H         1 <0>         0.1244
     34 H8         10.1663   -2.1727    1.1177 H         1 <0>         0.1358
     35 H9          7.1720    0.9371   -1.2785 H         1 <0>         0.1419
     36 H10         9.9393    1.3578   -2.3369 H         1 <0>         0.3919
     37 H11         4.1776   -4.6637    0.8222 H         1 <0>         0.1399
     38 H12         5.3354   -6.8555    0.7560 H         1 <0>         0.1726
     39 H13         9.3730   -5.9433   -1.1230 H         1 <0>         0.4172
     40 H14         9.3946   -4.2955   -1.4500 H         1 <0>         0.4162
@<TRIPOS>BOND
     1    1    6 ar
     2    1    2 ar
     3    1   28 1
     4    2    3 ar
     5    2   29 1
     6    3    4 ar
     7    3   30 1
     8    4    5 ar
     9    4    7 1
    10    5    6 ar
    11    5   31 1
    12    6   32 1
    13    7   12 2
    14    7    8 1
    15    8    9 1
    16    8   10 1
    17   10   11 2
    18   10   21 1
    19   11   12 1
    20   11   13 1
    21   13   18 ar
    22   13   14 ar
    23   14   15 ar
    24   14   33 1
    25   15   16 ar
    26   15   34 1
    27   16   17 ar
    28   16   20 1
    29   17   18 ar
    30   17   19 1
    31   18   35 1
    32   19   36 1
    33   21   26 ar
    34   21   22 ar
    35   22   23 ar
    36   22   37 1
    37   23   24 ar
    38   23   38 1
    39   24   25 ar
    40   25   26 ar
    41   25   27 1
    42   27   39 1
    43   27   40 1
@<TRIPOS>MOLECULE
CHEMBL200258__1
   40    43     0     0     0
SMALL
USER_CHARGES

@<TRIPOS>ATOM
      1 C1         -0.0167    1.3794    0.0096 C.ar      1 <0>        -0.1059
      2 C2          1.1684    2.0934    0.0021 C.ar      1 <0>        -0.1165
      3 C3          2.3774    1.4291   -0.0129 C.ar      1 <0>        -0.0739
      4 C4          2.4034    0.0337   -0.0206 C.ar      1 <0>        -0.0219
      5 C5          1.2043   -0.6806   -0.0130 C.ar      1 <0>        -0.1089
      6 C6          0.0021   -0.0041    0.0020 C.ar      1 <0>        -0.1155
      7 C7          3.6955   -0.6848   -0.0373 C.2       1 <0>         0.2689
      8 N1          4.8801   -0.1196   -0.0455 N.2       1 <0>        -0.4443
      9 H1          3.1340   -2.7007   -0.0329 H         1 <0>         0.4264
     10 C8          5.8304   -1.0696   -0.0593 C.2       1 <0>         0.0602
     11 C9          5.1948   -2.3016   -0.0597 C.2       1 <0>         0.0753
     12 N2          3.8465   -2.0425   -0.0405 N.pl3     1 <0>        -0.5525
     13 C10         5.8399   -3.6293   -0.0733 C.ar      1 <0>         0.0095
     14 C11         6.9100   -3.8799   -0.9358 C.ar      1 <0>        -0.0563
     15 C12         7.5107   -5.1215   -0.9455 C.ar      1 <0>        -0.0943
     16 C13         7.0567   -6.1212   -0.1030 C.ar      1 <0>        -0.0543
     17 C14         5.9927   -5.8812    0.7578 C.ar      1 <0>         0.1183
     18 C15         5.3864   -4.6372    0.7798 C.ar      1 <0>        -0.1207
     19 O1          5.5506   -6.8670    1.5828 O.3       1 <0>        -0.4856
     20 Cl1         7.8188   -7.6809   -0.1221 Cl        1 <0>        -0.0526
     21 C16         7.2919   -0.8417   -0.0727 C.ar      1 <0>         0.2983
     22 C17         7.8206    0.3525   -0.5762 C.ar      1 <0>        -0.2579
     23 C18         9.1924    0.5200   -0.5679 C.ar      1 <0>         0.1937
     24 N3          9.9607   -0.4463   -0.0879 N.ar      1 <0>        -0.5726
     25 C19         9.4339   -1.5674    0.3829 C.ar      1 <0>         0.5703
     26 N4          8.1257   -1.7679    0.3995 N.ar      1 <0>        -0.5583
     27 N5         10.2731   -2.5518    0.8754 N.pl3     1 <0>        -0.8218
     28 H2         -0.9605    1.9041    0.0260 H         1 <0>         0.1278
     29 H3          1.1469    3.1732    0.0078 H         1 <0>         0.1314
     30 H4          3.3018    1.9876   -0.0191 H         1 <0>         0.1390
     31 H5          1.2176   -1.7605   -0.0193 H         1 <0>         0.1181
     32 H6         -0.9265   -0.5556    0.0079 H         1 <0>         0.1291
     33 H7          7.2665   -3.1020   -1.5947 H         1 <0>         0.1288
     34 H8          8.3377   -5.3143   -1.6129 H         1 <0>         0.1405
     35 H9          4.5625   -4.4479    1.4519 H         1 <0>         0.1350
     36 H10         5.9878   -6.8837    2.4452 H         1 <0>         0.3949
     37 H11         7.1719    1.1248   -0.9623 H         1 <0>         0.1498
     38 H12         9.6333    1.4291   -0.9493 H         1 <0>         0.1708
     39 H13        11.2336   -2.4162    0.8729 H         1 <0>         0.4152
     40 H14         9.9007   -3.3773    1.2230 H         1 <0>         0.4129
@<TRIPOS>BOND
     1    1    6 ar
     2    1    2 ar
     3    1   28 1
     4    2    3 ar
     5    2   29 1
     6    3    4 ar
     7    3   30 1
     8    4    5 ar
     9    4    7 1
    10    5    6 ar
    11    5   31 1
    12    6   32 1
    13    7    8 2
    14    7   12 1
    15    8   10 1
    16    9   12 1
    17   10   21 1
    18   10   11 2
    19   11   13 1
    20   11   12 1
    21   13   18 ar
    22   13   14 ar
    23   14   15 ar
    24   14   33 1
    25   15   16 ar
    26   15   34 1
    27   16   17 ar
    28   16   20 1
    29   17   18 ar
    30   17   19 1
    31   18   35 1
    32   19   36 1
    33   21   26 ar
    34   21   22 ar
    35   22   23 ar
    36   22   37 1
    37   23   24 ar
    38   23   38 1
    39   24   25 ar
    40   25   26 ar
    41   25   27 1
    42   27   39 1
    43   27   40 1
@<TRIPOS>MOLECULE
CHEMBL526671
   46    50     0     0     0
SMALL
USER_CHARGES

@<TRIPOS>ATOM
      1 C1         -0.0178    1.4608    0.0101 C.3       1 <0>         0.0991
      2 N1          0.0021   -0.0041    0.0020 N.pl3     1 <0>        -0.3679
      3 C2          0.0077   -0.7861   -1.0961 C.2       1 <0>         0.0783
      4 C3          0.0272   -2.0858   -0.6831 C.2       1 <0>        -0.1995
      5 C4          0.0336   -2.0813    0.7350 C.2       1 <0>         0.1430
      6 N2          0.0245   -0.8284    1.1333 N.2       1 <0>        -0.2840
      7 C5          0.0538   -3.2770    1.6125 C.ar      1 <0>        -0.0605
      8 C6         -0.6240   -4.4395    1.2240 C.ar      1 <0>        -0.0370
      9 C7         -0.6165   -5.5475    2.0181 C.ar      1 <0>        -0.1408
     10 C8          0.0698   -5.5353    3.2313 C.ar      1 <0>         0.1384
     11 C9          0.7560   -4.3728    3.6337 C.ar      1 <0>        -0.1843
     12 C10         0.7481   -3.2422    2.8117 C.ar      1 <0>        -0.0039
     13 C11         1.3606   -4.6799    4.9266 C.2       1 <0>         0.0790
     14 N3          1.0462   -5.9064    5.2310 N.2       1 <0>        -0.2524
     15 N4          0.2573   -6.4655    4.2206 N.pl3     1 <0>        -0.4091
     16 C12        -0.2827   -7.8273    4.2197 C.3       1 <0>         0.1081
     17 C13         0.0391   -3.2833   -1.5564 C.ar      1 <0>         0.0279
     18 C14         0.9750   -4.2958   -1.3414 C.ar      1 <0>        -0.1101
     19 C15         0.9852   -5.4057   -2.1516 C.ar      1 <0>        -0.0647
     20 C16         0.0568   -5.5267   -3.1969 C.ar      1 <0>        -0.0728
     21 C17        -0.8770   -4.5137   -3.4085 C.ar      1 <0>        -0.0580
     22 C18        -0.8883   -3.4027   -2.5901 C.ar      1 <0>        -0.1082
     23 C19        -1.7582   -4.8726   -4.5812 C.3       1 <0>        -0.0826
     24 C20        -1.2698   -6.2365   -5.0877 C.3       1 <0>        -0.1142
     25 C21        -0.1214   -6.6109   -4.1827 C.2       1 <0>         0.1745
     26 N5          0.5839   -7.6934   -4.2577 N.2       1 <0>        -0.3271
     27 O1          0.3018   -8.6541   -5.2590 O.3       1 <0>        -0.4074
     28 H1          1.0048    1.8381    0.0023 H         1 <0>         0.0784
     29 H2         -0.5450    1.8219   -0.8730 H         1 <0>         0.0906
     30 H3         -0.5280    1.8123    0.9069 H         1 <0>         0.0924
     31 H4         -0.0021   -0.4443   -2.1206 H         1 <0>         0.1797
     32 H5         -1.1584   -4.4581    0.2857 H         1 <0>         0.1330
     33 H6         -1.1440   -6.4370    1.7066 H         1 <0>         0.1280
     34 H7          1.2748   -2.3479    3.1103 H         1 <0>         0.1335
     35 H8          1.9617   -4.0100    5.5234 H         1 <0>         0.1987
     36 H9          0.4301   -8.5005    3.7436 H         1 <0>         0.0713
     37 H10        -0.4571   -8.1497    5.2463 H         1 <0>         0.0884
     38 H11        -1.2230   -7.8449    3.6687 H         1 <0>         0.0848
     39 H12         1.6918   -4.2069   -0.5384 H         1 <0>         0.1293
     40 H13         1.7108   -6.1877   -1.9834 H         1 <0>         0.1280
     41 H14        -1.6153   -2.6210   -2.7539 H         1 <0>         0.1278
     42 H15        -2.7976   -4.9429   -4.2605 H         1 <0>         0.0895
     43 H16        -1.6584   -4.1240   -5.3671 H         1 <0>         0.0893
     44 H17        -2.0674   -6.9754   -5.0112 H         1 <0>         0.0941
     45 H18        -0.9268   -6.1555   -6.1192 H         1 <0>         0.0940
     46 H19         0.8810   -9.4282   -5.2357 H         1 <0>         0.4056
@<TRIPOS>BOND
     1    1    2 1
     2    1   28 1
     3    1   29 1
     4    1   30 1
     5    2    6 1
     6    2    3 1
     7    3    4 2
     8    3   31 1
     9    4    5 1
    10    4   17 1
    11    5    6 2
    12    5    7 1
    13    7   12 ar
    14    7    8 ar
    15    8    9 ar
    16    8   32 1
    17    9   10 ar
    18    9   33 1
    19   10   15 1
    20   10   11 ar
    21   11   12 ar
    22   11   13 1
    23   12   34 1
    24   13   14 2
    25   13   35 1
    26   14   15 1
    27   15   16 1
    28   16   36 1
    29   16   37 1
    30   16   38 1
    31   17   22 ar
    32   17   18 ar
    33   18   19 ar
    34   18   39 1
    35   19   20 ar
    36   19   40 1
    37   20   25 1
    38   20   21 ar
    39   21   22 ar
    40   21   23 1
    41   22   41 1
    42   23   24 1
    43   23   42 1
    44   23   43 1
    45   24   25 1
    46   24   44 1
    47   24   45 1
    48   25   26 2
    49   26   27 1
    50   27   46 1
@<TRIPOS>MOLECULE
CHEMBL498468
   41    44     0     0     0
SMALL
USER_CHARGES

@<TRIPOS>ATOM
      1 C1         -0.0184    1.5028    0.0103 C.3       1 <0>        -0.0789
      2 C2          0.0021   -0.0041    0.0020 C.2       1 <0>        -0.2256
      3 C3          0.0084   -0.7934   -1.0941 C.2       1 <0>         0.0572
      4 N1          0.0280   -2.0793   -0.6818 N.pl3     1 <0>        -0.4740
      5 H1          0.0369   -2.8610   -1.2561 H         1 <0>         0.4419
      6 N2          0.0341   -2.0883    0.7188 N.2       1 <0>        -0.2806
      7 C4          0.0242   -0.8397    1.1360 C.2       1 <0>         0.1169
      8 C5          0.0314   -0.3918    2.5503 C.ar      1 <0>        -0.0154
      9 C6          0.7068    0.7741    2.9088 C.ar      1 <0>        -0.0921
     10 C7          0.7140    1.1899    4.2221 C.ar      1 <0>        -0.1126
     11 C8          0.0453    0.4449    5.1929 C.ar      1 <0>         0.0032
     12 C9         -0.6306   -0.7210    4.8341 C.ar      1 <0>        -0.1037
     13 C10        -0.6420   -1.1337    3.5199 C.ar      1 <0>        -0.0856
     14 C11         0.0533    0.8921    6.6068 C.2       1 <0>        -0.1864
     15 C12         1.1497    1.2515    7.3325 C.2       1 <0>         0.0751
     16 N3          0.7331    1.5923    8.5694 N.pl3     1 <0>        -0.3648
     17 N4         -0.6579    1.4443    8.6246 N.2       1 <0>        -0.2740
     18 C13        -1.0790    1.0299    7.4494 C.2       1 <0>         0.1212
     19 C14        -2.4860    0.7521    7.0740 C.ar      1 <0>         0.0310
     20 C15        -2.9489    1.0121    5.7805 C.ar      1 <0>        -0.1420
     21 C16        -4.2656    0.7383    5.4734 C.ar      1 <0>         0.1009
     22 N5         -5.0829    0.2385    6.3807 N.ar      1 <0>        -0.4804
     23 C17        -4.6863   -0.0212    7.6120 C.ar      1 <0>         0.0992
     24 C18        -3.3849    0.2175    8.0020 C.ar      1 <0>        -0.1474
     25 C19         1.5911    2.0406    9.6689 C.3       1 <0>         0.0982
     26 H2          1.0042    1.8801    0.0026 H         1 <0>         0.0629
     27 H3         -0.5455    1.8639   -0.8728 H         1 <0>         0.0629
     28 H4         -0.5286    1.8543    0.9071 H         1 <0>         0.0679
     29 H5         -0.0010   -0.4556   -2.1198 H         1 <0>         0.1781
     30 H6          1.2247    1.3511    2.1569 H         1 <0>         0.1302
     31 H7          1.2378    2.0926    4.4999 H         1 <0>         0.1264
     32 H8         -1.1486   -1.2980    5.5859 H         1 <0>         0.1217
     33 H9         -1.1689   -2.0344    3.2413 H         1 <0>         0.1264
     34 H10         2.1705    1.2613    6.9800 H         1 <0>         0.1822
     35 H11        -2.2855    1.4215    5.0330 H         1 <0>         0.1391
     36 H12        -4.6325    0.9361    4.4771 H         1 <0>         0.1590
     37 H13        -5.3890   -0.4302    8.3229 H         1 <0>         0.1591
     38 H14        -3.0659   -0.0018    9.0103 H         1 <0>         0.1377
     39 H15         1.6887    3.1257    9.6345 H         1 <0>         0.0800
     40 H16         1.1470    1.7457   10.6197 H         1 <0>         0.0929
     41 H17         2.5759    1.5839    9.5707 H         1 <0>         0.0923
@<TRIPOS>BOND
     1    1    2 1
     2    1   26 1
     3    1   27 1
     4    1   28 1
     5    2    7 1
     6    2    3 2
     7    3    4 1
     8    3   29 1
     9    4    5 1
    10    4    6 1
    11    6    7 2
    12    7    8 1
    13    8   13 ar
    14    8    9 ar
    15    9   10 ar
    16    9   30 1
    17   10   11 ar
    18   10   31 1
    19   11   12 ar
    20   11   14 1
    21   12   13 ar
    22   12   32 1
    23   13   33 1
    24   14   18 1
    25   14   15 2
    26   15   16 1
    27   15   34 1
    28   16   17 1
    29   16   25 1
    30   17   18 2
    31   18   19 1
    32   19   24 ar
    33   19   20 ar
    34   20   21 ar
    35   20   35 1
    36   21   22 ar
    37   21   36 1
    38   22   23 ar
    39   23   24 ar
    40   23   37 1
    41   24   38 1
    42   25   39 1
    43   25   40 1
    44   25   41 1
@<TRIPOS>MOLECULE
CHEMBL498468__1
   41    44     0     0     0
SMALL
USER_CHARGES

@<TRIPOS>ATOM
      1 C1         -0.0127    1.0858    0.0080 C.3       1 <0>        -0.0813
      2 C2         -0.7416    1.5850   -1.2129 C.2       1 <0>        -0.2182
      3 C3         -2.1095    1.8413   -1.3053 C.2       1 <0>         0.0522
      4 N1         -2.3750    2.2612   -2.5163 N.2       1 <0>        -0.2847
      5 H1         -1.0850    2.5612   -4.1751 H         1 <0>         0.4388
      6 N2         -1.1814    2.2899   -3.2489 N.pl3     1 <0>        -0.4721
      7 C4         -0.1787    1.8729   -2.4248 C.2       1 <0>         0.1230
      8 C5          1.2524    1.7519   -2.7773 C.ar      1 <0>        -0.0365
      9 C6          2.2303    2.2212   -1.8982 C.ar      1 <0>        -0.0868
     10 C7          3.5627    2.1083   -2.2271 C.ar      1 <0>        -0.1095
     11 C8          3.9354    1.5257   -3.4385 C.ar      1 <0>         0.0083
     12 C9          2.9589    1.0571   -4.3175 C.ar      1 <0>        -0.1000
     13 C10         1.6264    1.1633   -3.9868 C.ar      1 <0>        -0.0985
     14 C11         5.3702    1.4050   -3.7922 C.2       1 <0>        -0.1910
     15 C12         6.3002    2.4003   -3.7395 C.2       1 <0>         0.0773
     16 N3          7.4805    1.8845   -4.1398 N.pl3     1 <0>        -0.3637
     17 N4          7.2903    0.5332   -4.4520 N.2       1 <0>        -0.2728
     18 C13         6.0276    0.2314   -4.2414 C.2       1 <0>         0.1223
     19 C14         5.4022   -1.0978   -4.4412 C.ar      1 <0>         0.0299
     20 C15         4.3762   -1.5423   -3.6018 C.ar      1 <0>        -0.1431
     21 C16         3.8221   -2.7861   -3.8232 C.ar      1 <0>         0.1014
     22 N5          4.2479   -3.5513   -4.8100 N.ar      1 <0>        -0.4797
     23 C17         5.2133   -3.1698   -5.6245 C.ar      1 <0>         0.1000
     24 C18         5.8184   -1.9388   -5.4778 C.ar      1 <0>        -0.1472
     25 C19         8.7470    2.6151   -4.2330 C.3       1 <0>         0.0976
     26 H2          0.0021   -0.0041    0.0020 H         1 <0>         0.0638
     27 H3          1.0099    1.4631    0.0003 H         1 <0>         0.0652
     28 H4         -0.5229    1.4373    0.9048 H         1 <0>         0.0660
     29 H5         -2.8295    1.7144   -0.5104 H         1 <0>         0.1852
     30 H6          1.9419    2.6729   -0.9605 H         1 <0>         0.1333
     31 H7          4.3192    2.4712   -1.5472 H         1 <0>         0.1287
     32 H8          3.2482    0.6068   -5.2555 H         1 <0>         0.1236
     33 H9          0.8707    0.7958   -4.6652 H         1 <0>         0.1232
     34 H10         6.1233    3.4205   -3.4324 H         1 <0>         0.1825
     35 H11         4.0229   -0.9213   -2.7918 H         1 <0>         0.1384
     36 H12         3.0293   -3.1383   -3.1799 H         1 <0>         0.1595
     37 H13         5.5312   -3.8284   -6.4192 H         1 <0>         0.1596
     38 H14         6.6046   -1.6309   -6.1512 H         1 <0>         0.1380
     39 H15         9.2793    2.5418   -3.2846 H         1 <0>         0.0809
     40 H16         9.3574    2.1843   -5.0266 H         1 <0>         0.0936
     41 H17         8.5464    3.6628   -4.4570 H         1 <0>         0.0928
@<TRIPOS>BOND
     1    1   26 1
     2    1   27 1
     3    1   28 1
     4    1    2 1
     5    2    3 1
     6    2    7 2
     7    3    4 2
     8    3   29 1
     9    4    6 1
    10    5    6 1
    11    6    7 1
    12    7    8 1
    13    8   13 ar
    14    8    9 ar
    15    9   10 ar
    16    9   30 1
    17   10   11 ar
    18   10   31 1
    19   11   12 ar
    20   11   14 1
    21   12   13 ar
    22   12   32 1
    23   13   33 1
    24   14   18 1
    25   14   15 2
    26   15   16 1
    27   15   34 1
    28   16   17 1
    29   16   25 1
    30   17   18 2
    31   18   19 1
    32   19   24 ar
    33   19   20 ar
    34   20   21 ar
    35   20   35 1
    36   21   22 ar
    37   21   36 1
    38   22   23 ar
    39   23   24 ar
    40   23   37 1
    41   24   38 1
    42   25   39 1
    43   25   40 1
    44   25   41 1
@<TRIPOS>MOLECULE
CHEMBL1088289
   69    75     0     0     0
SMALL
USER_CHARGES

@<TRIPOS>ATOM
      1 C1         -0.0167    1.3782    0.0096 C.ar      1 <0>        -0.0991
      2 C2          1.1666    2.0886    0.0021 C.ar      1 <0>        -0.1115
      3 C3          2.3864    1.4109   -0.0132 C.ar      1 <0>         0.0191
      4 C4          2.4039    0.0163   -0.0209 C.ar      1 <0>        -0.1248
      5 C5          1.2113   -0.6868   -0.0132 C.ar      1 <0>         0.1080
      6 C6          0.0021   -0.0041    0.0020 C.ar      1 <0>        -0.1421
      7 O1          1.2239   -2.0458   -0.0211 O.3       1 <0>        -0.4990
      8 C7          3.6571    2.1694   -0.0217 C.2       1 <0>        -0.1810
      9 C8          4.1170    3.0191   -1.0471 C.2       1 <0>         0.1667
     10 N1          5.2869    3.5130   -0.6897 N.2       1 <0>        -0.2886
     11 N2          5.6322    3.0102    0.5693 N.pl3     1 <0>        -0.2995
     12 C9          4.6243    2.1818    0.9902 C.2       1 <0>         0.2801
     13 N3          4.6945    1.5653    2.1741 N.2       1 <0>        -0.4574
     14 C10         5.7256    1.7338    2.9723 C.2       1 <0>         0.1847
     15 C11         6.7800    2.5685    2.5971 C.2       1 <0>        -0.2113
     16 C12         6.7290    3.2085    1.3741 C.2       1 <0>         0.2458
     17 C13         7.8243    4.0998    0.9460 C.ar      1 <0>        -0.1254
     18 C14         7.5926    5.4693    0.7902 C.ar      1 <0>        -0.0209
     19 C15         8.6170    6.2982    0.3909 C.ar      1 <0>        -0.1892
     20 C16         9.8816    5.7738    0.1422 C.ar      1 <0>         0.2305
     21 C17        10.1157    4.4110    0.2963 C.ar      1 <0>        -0.1945
     22 C18         9.0972    3.5773    0.7009 C.ar      1 <0>        -0.0304
     23 N4         10.9157    6.6154   -0.2625 N.pl3     1 <0>        -0.7475
     24 C19        12.2479    6.0650   -0.5248 C.3       1 <0>         0.1393
     25 C20        13.1906    7.1923   -0.9509 C.3       1 <0>        -0.0795
     26 C21        12.6726    7.8638   -2.2296 C.3       1 <0>        -0.1341
     27 C22        13.6316    8.9912   -2.6183 C.3       1 <0>        -0.0057
     28 N5         14.7303    9.0704   -1.6528 N.4       1 <0>        -0.3759
     29 C23        15.4997    7.8239   -1.6438 C.3       1 <0>        -0.0075
     30 C24        14.5927    6.6356   -1.2305 C.3       1 <0>        -0.1272
     31 C25        14.2195    9.3708   -0.3132 C.3       1 <0>        -0.0065
     32 C26        13.3001    8.2429    0.1621 C.3       1 <0>        -0.1336
     33 C27         3.4055    3.3095   -2.3151 C.ar      1 <0>         0.0232
     34 C28         2.6382    2.3277   -2.9492 C.ar      1 <0>        -0.1364
     35 C29         1.9926    2.6404   -4.1277 C.ar      1 <0>         0.1051
     36 N6          2.0924    3.8454   -4.6554 N.ar      1 <0>        -0.4747
     37 C30         2.8058    4.8000   -4.0894 C.ar      1 <0>         0.0995
     38 C31         3.4788    4.5743   -2.9064 C.ar      1 <0>        -0.1430
     39 H1         -0.9600    1.9038    0.0260 H         1 <0>         0.1291
     40 H2          1.1485    3.1685    0.0078 H         1 <0>         0.1201
     41 H3          3.3449   -0.5135   -0.0331 H         1 <0>         0.1242
     42 H4         -0.9269   -0.5549    0.0079 H         1 <0>         0.1298
     43 H5          1.2362   -2.4441    0.8599 H         1 <0>         0.3920
     44 H6          5.7569    1.2239    3.9238 H         1 <0>         0.1859
     45 H7          7.6271    2.7077    3.2524 H         1 <0>         0.1701
     46 H8          6.6110    5.8768    0.9824 H         1 <0>         0.1247
     47 H9          8.4387    7.3565    0.2703 H         1 <0>         0.1266
     48 H10        11.0984    4.0072    0.1021 H         1 <0>         0.1271
     49 H11         9.2806    2.5201    0.8242 H         1 <0>         0.1298
     50 H12        10.7537    7.5656   -0.3706 H         1 <0>         0.3984
     51 H13        12.6309    5.5936    0.3802 H         1 <0>         0.0753
     52 H14        12.1844    5.3239   -1.3216 H         1 <0>         0.0748
     53 H15        12.6261    7.1301   -3.0344 H         1 <0>         0.1046
     54 H16        11.6792    8.2749   -2.0497 H         1 <0>         0.0990
     55 H17        14.0361    8.7957   -3.6114 H         1 <0>         0.1320
     56 H18        13.0912    9.9378   -2.6297 H         1 <0>         0.1308
     57 H19        15.8940    7.6350   -2.6423 H         1 <0>         0.1314
     58 H20        16.3278    7.9151   -0.9410 H         1 <0>         0.1326
     59 H21        14.9907    6.1766   -0.3255 H         1 <0>         0.1037
     60 H22        14.5386    5.8923   -2.0260 H         1 <0>         0.1060
     61 H23        15.0547    9.4532    0.3822 H         1 <0>         0.1309
     62 H24        13.6760   10.3153   -0.3368 H         1 <0>         0.1318
     63 H25        12.3143    8.6585    0.3704 H         1 <0>         0.0978
     64 H26        13.7014    7.7796    1.0635 H         1 <0>         0.1056
     65 H27         2.5525    1.3390   -2.5230 H         1 <0>         0.1408
     66 H28         1.3979    1.8885   -4.6251 H         1 <0>         0.1632
     67 H29         2.8600    5.7725   -4.5560 H         1 <0>         0.1604
     68 H30         4.0569    5.3618   -2.4459 H         1 <0>         0.1375
     69 H31        15.3440    9.8224   -1.9285 H         1 <0>         0.4285
@<TRIPOS>BOND
     1    1    6 ar
     2    1    2 ar
     3    1   39 1
     4    2    3 ar
     5    2   40 1
     6    3    4 ar
     7    3    8 1
     8    4    5 ar
     9    4   41 1
    10    5    6 ar
    11    5    7 1
    12    6   42 1
    13    7   43 1
    14    8   12 2
    15    8    9 1
    16    9   10 2
    17    9   33 1
    18   10   11 1
    19   11   16 1
    20   11   12 1
    21   12   13 1
    22   13   14 2
    23   14   15 1
    24   14   44 1
    25   15   16 2
    26   15   45 1
    27   16   17 1
    28   17   22 ar
    29   17   18 ar
    30   18   19 ar
    31   18   46 1
    32   19   20 ar
    33   19   47 1
    34   20   21 ar
    35   20   23 1
    36   21   22 ar
    37   21   48 1
    38   22   49 1
    39   23   24 1
    40   23   50 1
    41   24   25 1
    42   24   51 1
    43   24   52 1
    44   25   30 1
    45   25   32 1
    46   25   26 1
    47   26   27 1
    48   26   53 1
    49   26   54 1
    50   27   28 1
    51   27   55 1
    52   27   56 1
    53   28   29 1
    54   28   31 1
    55   28   69 1
    56   29   30 1
    57   29   57 1
    58   29   58 1
    59   30   59 1
    60   30   60 1
    61   31   32 1
    62   31   61 1
    63   31   62 1
    64   32   63 1
    65   32   64 1
    66   33   38 ar
    67   33   34 ar
    68   34   35 ar
    69   34   65 1
    70   35   36 ar
    71   35   66 1
    72   36   37 ar
    73   37   38 ar
    74   37   67 1
    75   38   68 1
@<TRIPOS>MOLECULE
CHEMBL541201
   66    70     0     0     0
SMALL
USER_CHARGES

@<TRIPOS>ATOM
      1 C1         -0.3085    1.2996   -0.4114 C.ar      1 <0>        -0.0969
      2 C2          0.8243    2.0731   -0.5625 C.ar      1 <0>        -0.0821
      3 C3          2.0836    1.4700   -0.5838 C.ar      1 <0>        -0.0589
      4 C4          2.1907    0.0849   -0.4520 C.ar      1 <0>        -0.0788
      5 C5          1.0468   -0.6825   -0.3008 C.ar      1 <0>         0.1572
      6 C6         -0.2020   -0.0724   -0.2808 C.ar      1 <0>        -0.1171
      7 N1          1.1489   -2.0721   -0.1681 N.am      1 <0>        -0.6778
      8 C7          2.0970   -2.7461   -0.8487 C.2       1 <0>         0.7067
      9 O1          2.9164   -2.1399   -1.5116 O.2       1 <0>        -0.5501
     10 N2          2.1368   -4.0922   -0.7946 N.am      1 <0>        -0.6786
     11 C8          3.1834   -4.7870   -1.4124 C.ar      1 <0>         0.1700
     12 C9          4.4550   -4.2308   -1.4596 C.ar      1 <0>        -0.0761
     13 C10         5.4857   -4.9181   -2.0697 C.ar      1 <0>        -0.0867
     14 C11         5.2521   -6.1601   -2.6341 C.ar      1 <0>        -0.0082
     15 C12         3.9861   -6.7164   -2.5884 C.ar      1 <0>        -0.1556
     16 C13         2.9531   -6.0357   -1.9739 C.ar      1 <0>        -0.0888
     17 C14         3.7354   -8.0689   -3.2040 C.3       1 <0>         0.5112
     18 F1          2.3912   -8.4169   -3.0334 F         1 <0>        -0.1744
     19 F2          4.0355   -8.0225   -4.5696 F         1 <0>        -0.1670
     20 F3          4.5469   -9.0227   -2.5804 F         1 <0>        -0.1674
     21 Cl1         6.5498   -7.0211   -3.4013 Cl        1 <0>        -0.0387
     22 C15         3.2981    2.2953   -0.7459 C.2       1 <0>         0.2456
     23 C16         4.2334    2.3777    0.2679 C.2       1 <0>        -0.2066
     24 C17         5.3685    3.1666    0.0806 C.2       1 <0>         0.1910
     25 N3          5.5420    3.8218   -1.0477 N.2       1 <0>        -0.4453
     26 C18         4.6479    3.7514   -2.0340 C.2       1 <0>         0.3278
     27 N4          3.5211    2.9896   -1.9080 N.pl3     1 <0>        -0.2972
     28 N5          2.7835    3.1031   -3.0910 N.2       1 <0>        -0.2995
     29 C19         3.4124    3.8898   -3.9238 C.2       1 <0>         0.1263
     30 C20         4.5959    4.3414   -3.3120 C.2       1 <0>        -0.2960
     31 C21         5.5931    5.2411   -3.8990 C.2       1 <0>         0.5996
     32 O2          6.5870    5.5445   -3.2653 O.2       1 <0>        -0.5256
     33 N6          5.4096    5.7324   -5.1406 N.am      1 <0>        -0.7330
     34 C22         6.4063    6.6316   -5.7273 C.3       1 <0>         0.1270
     35 C23         5.9598    7.0406   -7.1324 C.3       1 <0>         0.0445
     36 N7          6.9593    7.9423   -7.7207 N.3       1 <0>        -0.5334
     37 C24         7.0114    9.2181   -6.9922 C.3       1 <0>         0.0115
     38 C25         8.1041   10.1020   -7.5993 C.3       1 <0>         0.0627
     39 O3          7.8425   10.2848   -8.9934 O.3       1 <0>        -0.3854
     40 C26         7.7856    9.0625   -9.7337 C.3       1 <0>         0.0627
     41 C27         6.6897    8.1681   -9.1481 C.3       1 <0>         0.0186
     42 H1         -1.2813    1.7682   -0.3907 H         1 <0>         0.1380
     43 H2          0.7369    3.1447   -0.6646 H         1 <0>         0.1270
     44 H3          3.1618   -0.3875   -0.4681 H         1 <0>         0.1472
     45 H4         -1.0922   -0.6723   -0.1625 H         1 <0>         0.1341
     46 H5          0.5373   -2.5500    0.4136 H         1 <0>         0.4136
     47 H6          1.4402   -4.5796   -0.3275 H         1 <0>         0.4148
     48 H7          4.6377   -3.2614   -1.0200 H         1 <0>         0.1546
     49 H8          6.4748   -4.4860   -2.1067 H         1 <0>         0.1523
     50 H9          1.9661   -6.4723   -1.9345 H         1 <0>         0.1525
     51 H10         4.0874    1.8392    1.1926 H         1 <0>         0.1734
     52 H11         6.1078    3.2402    0.8645 H         1 <0>         0.1894
     53 H12         3.0745    4.1570   -4.9141 H         1 <0>         0.2030
     54 H13         4.6175    5.4906   -5.6457 H         1 <0>         0.3958
     55 H14         6.5051    7.5205   -5.1043 H         1 <0>         0.0680
     56 H15         7.3672    6.1203   -5.7858 H         1 <0>         0.0781
     57 H16         5.8610    6.1517   -7.7554 H         1 <0>         0.0841
     58 H17         4.9990    7.5519   -7.0739 H         1 <0>         0.0431
     59 H18         6.0486    9.7228   -7.0726 H         1 <0>         0.0454
     60 H19         7.2375    9.0291   -5.9428 H         1 <0>         0.0918
     61 H20         8.1081   11.0707   -7.0997 H         1 <0>         0.0999
     62 H21         9.0740    9.6215   -7.4710 H         1 <0>         0.0621
     63 H22         7.5593    9.2794  -10.7776 H         1 <0>         0.0997
     64 H23         8.7463    8.5517   -9.6674 H         1 <0>         0.0616
     65 H24         6.6809    7.2125   -9.6725 H         1 <0>         0.0884
     66 H25         5.7217    8.6559   -9.2630 H         1 <0>         0.0449
@<TRIPOS>BOND
     1    1    6 ar
     2    1    2 ar
     3    1   42 1
     4    2    3 ar
     5    2   43 1
     6    3    4 ar
     7    3   22 1
     8    4    5 ar
     9    4   44 1
    10    5    6 ar
    11    5    7 1
    12    6   45 1
    13    7    8 am
    14    7   46 1
    15    8    9 2
    16    8   10 am
    17   10   11 1
    18   10   47 1
    19   11   16 ar
    20   11   12 ar
    21   12   13 ar
    22   12   48 1
    23   13   14 ar
    24   13   49 1
    25   14   15 ar
    26   14   21 1
    27   15   16 ar
    28   15   17 1
    29   16   50 1
    30   17   18 1
    31   17   19 1
    32   17   20 1
    33   22   27 1
    34   22   23 2
    35   23   24 1
    36   23   51 1
    37   24   25 2
    38   24   52 1
    39   25   26 1
    40   26   30 2
    41   26   27 1
    42   27   28 1
    43   28   29 2
    44   29   30 1
    45   29   53 1
    46   30   31 1
    47   31   32 2
    48   31   33 am
    49   33   34 1
    50   33   54 1
    51   34   35 1
    52   34   55 1
    53   34   56 1
    54   35   36 1
    55   35   57 1
    56   35   58 1
    57   36   41 1
    58   36   37 1
    59   37   38 1
    60   37   59 1
    61   37   60 1
    62   38   39 1
    63   38   61 1
    64   38   62 1
    65   39   40 1
    66   40   41 1
    67   40   63 1
    68   40   64 1
    69   41   65 1
    70   41   66 1
@<TRIPOS>MOLECULE
CHEMBL541201__1
   67    71     0     0     0
SMALL
USER_CHARGES

@<TRIPOS>ATOM
      1 C1         -0.3085    1.2996   -0.4114 C.ar      1 <0>        -0.0959
      2 C2          0.8243    2.0731   -0.5625 C.ar      1 <0>        -0.0823
      3 C3          2.0836    1.4700   -0.5838 C.ar      1 <0>        -0.0670
      4 C4          2.1907    0.0849   -0.4520 C.ar      1 <0>        -0.0780
      5 C5          1.0468   -0.6825   -0.3008 C.ar      1 <0>         0.1603
      6 C6         -0.2020   -0.0724   -0.2808 C.ar      1 <0>        -0.1137
      7 N1          1.1489   -2.0721   -0.1681 N.am      1 <0>        -0.6784
      8 C7          2.0970   -2.7461   -0.8487 C.2       1 <0>         0.7085
      9 O1          2.9164   -2.1399   -1.5116 O.2       1 <0>        -0.5537
     10 N2          2.1368   -4.0922   -0.7946 N.am      1 <0>        -0.6776
     11 C8          3.1834   -4.7870   -1.4124 C.ar      1 <0>         0.1687
     12 C9          4.4550   -4.2308   -1.4596 C.ar      1 <0>        -0.0768
     13 C10         5.4857   -4.9181   -2.0697 C.ar      1 <0>        -0.0878
     14 C11         5.2521   -6.1601   -2.6341 C.ar      1 <0>        -0.0078
     15 C12         3.9861   -6.7164   -2.5884 C.ar      1 <0>        -0.1543
     16 C13         2.9531   -6.0357   -1.9739 C.ar      1 <0>        -0.0875
     17 C14         3.7354   -8.0689   -3.2040 C.3       1 <0>         0.5108
     18 F1          2.3912   -8.4169   -3.0334 F         1 <0>        -0.1736
     19 F2          4.0355   -8.0225   -4.5696 F         1 <0>        -0.1671
     20 F3          4.5469   -9.0227   -2.5804 F         1 <0>        -0.1664
     21 Cl1         6.5498   -7.0211   -3.4013 Cl        1 <0>        -0.0372
     22 C15         3.2981    2.2953   -0.7459 C.2       1 <0>         0.2542
     23 C16         4.2334    2.3777    0.2679 C.2       1 <0>        -0.2036
     24 C17         5.3685    3.1666    0.0806 C.2       1 <0>         0.2015
     25 N3          5.5420    3.8218   -1.0477 N.2       1 <0>        -0.4550
     26 C18         4.6479    3.7514   -2.0340 C.2       1 <0>         0.3386
     27 N4          3.5211    2.9896   -1.9080 N.pl3     1 <0>        -0.2954
     28 N5          2.7835    3.1031   -3.0910 N.2       1 <0>        -0.2934
     29 C19         3.4124    3.8898   -3.9238 C.2       1 <0>         0.1278
     30 C20         4.5959    4.3414   -3.3120 C.2       1 <0>        -0.3162
     31 C21         5.5931    5.2411   -3.8990 C.2       1 <0>         0.6100
     32 O2          6.5870    5.5445   -3.2653 O.2       1 <0>        -0.5171
     33 N6          5.4096    5.7324   -5.1406 N.am      1 <0>        -0.7372
     34 C22         6.4063    6.6316   -5.7273 C.3       1 <0>         0.1016
     35 C23         5.9598    7.0406   -7.1324 C.3       1 <0>        -0.0218
     36 N7          6.9593    7.9423   -7.7207 N.4       1 <0>        -0.3816
     37 C24         7.0058    9.1921   -6.9495 C.3       1 <0>        -0.0513
     38 C25         8.0480   10.1297   -7.5642 C.3       1 <0>         0.0365
     39 O3          7.7160   10.3700   -8.9346 O.3       1 <0>        -0.3564
     40 C26         7.6349    9.1792   -9.7227 C.3       1 <0>         0.0356
     41 C27         6.5920    8.2398   -9.1120 C.3       1 <0>        -0.0424
     42 H1         -1.2813    1.7682   -0.3907 H         1 <0>         0.1395
     43 H2          0.7369    3.1447   -0.6646 H         1 <0>         0.1263
     44 H3          3.1618   -0.3875   -0.4681 H         1 <0>         0.1477
     45 H4         -1.0922   -0.6723   -0.1625 H         1 <0>         0.1364
     46 H5          0.5373   -2.5500    0.4136 H         1 <0>         0.4152
     47 H6          1.4402   -4.5796   -0.3275 H         1 <0>         0.4159
     48 H7          4.6377   -3.2614   -1.0200 H         1 <0>         0.1536
     49 H8          6.4748   -4.4860   -2.1067 H         1 <0>         0.1516
     50 H9          1.9661   -6.4723   -1.9345 H         1 <0>         0.1533
     51 H10         4.0874    1.8392    1.1926 H         1 <0>         0.1779
     52 H11         6.1078    3.2402    0.8645 H         1 <0>         0.1931
     53 H12         3.0745    4.1570   -4.9141 H         1 <0>         0.2011
     54 H13         4.6175    5.4906   -5.6457 H         1 <0>         0.4038
     55 H14         6.5051    7.5205   -5.1043 H         1 <0>         0.0883
     56 H15         7.3672    6.1203   -5.7858 H         1 <0>         0.0889
     57 H16         5.8610    6.1517   -7.7554 H         1 <0>         0.1407
     58 H17         4.9990    7.5519   -7.0739 H         1 <0>         0.1387
     59 H18         6.0269    9.6709   -6.9734 H         1 <0>         0.1416
     60 H19         7.2783    8.9725   -5.9172 H         1 <0>         0.1461
     61 H20         8.0539   11.0742   -7.0201 H         1 <0>         0.1434
     62 H21         9.0335    9.6680   -7.5040 H         1 <0>         0.0830
     63 H22         7.3419    9.4357  -10.7408 H         1 <0>         0.1430
     64 H23         8.6063    8.6850   -9.7364 H         1 <0>         0.0823
     65 H24         6.5573    7.3133   -9.6850 H         1 <0>         0.1443
     66 H25         5.6132    8.7189   -9.1351 H         1 <0>         0.1405
     67 H26         7.8657    7.4996   -7.6993 H         1 <0>         0.4261
@<TRIPOS>BOND
     1    1    6 ar
     2    1    2 ar
     3    1   42 1
     4    2    3 ar
     5    2   43 1
     6    3    4 ar
     7    3   22 1
     8    4    5 ar
     9    4   44 1
    10    5    6 ar
    11    5    7 1
    12    6   45 1
    13    7    8 am
    14    7   46 1
    15    8    9 2
    16    8   10 am
    17   10   11 1
    18   10   47 1
    19   11   16 ar
    20   11   12 ar
    21   12   13 ar
    22   12   48 1
    23   13   14 ar
    24   13   49 1
    25   14   15 ar
    26   14   21 1
    27   15   16 ar
    28   15   17 1
    29   16   50 1
    30   17   18 1
    31   17   19 1
    32   17   20 1
    33   22   27 1
    34   22   23 2
    35   23   24 1
    36   23   51 1
    37   24   25 2
    38   24   52 1
    39   25   26 1
    40   26   30 2
    41   26   27 1
    42   27   28 1
    43   28   29 2
    44   29   30 1
    45   29   53 1
    46   30   31 1
    47   31   32 2
    48   31   33 am
    49   33   34 1
    50   33   54 1
    51   34   35 1
    52   34   55 1
    53   34   56 1
    54   35   36 1
    55   35   57 1
    56   35   58 1
    57   36   41 1
    58   36   37 1
    59   36   67 1
    60   37   38 1
    61   37   59 1
    62   37   60 1
    63   38   39 1
    64   38   61 1
    65   38   62 1
    66   39   40 1
    67   40   41 1
    68   40   63 1
    69   40   64 1
    70   41   65 1
    71   41   66 1
@<TRIPOS>MOLECULE
CHEMBL524640
   50    54     0     0     0
SMALL
USER_CHARGES

@<TRIPOS>ATOM
      1 C1         -0.0168    1.3908    0.0097 C.ar      1 <0>        -0.1106
      2 C2          1.1640    2.0945    0.0022 C.ar      1 <0>        -0.0637
      3 C3          2.3915    1.4155   -0.0131 C.ar      1 <0>        -0.0695
      4 C4          2.4067    0.0213   -0.0207 C.ar      1 <0>        -0.0574
      5 C5          1.2202   -0.6823   -0.0128 C.ar      1 <0>        -0.1065
      6 C6          0.0021   -0.0041    0.0020 C.ar      1 <0>         0.0232
      7 C7         -1.2706   -0.7638    0.0101 C.2       1 <0>        -0.1889
      8 C8         -1.6067   -1.7834   -0.8305 C.2       1 <0>         0.0777
      9 N1         -2.8430   -2.2046   -0.4953 N.pl3     1 <0>        -0.3514
     10 N2         -3.2973   -1.4333    0.5811 N.2       1 <0>        -0.2652
     11 C9         -2.3595   -0.5675    0.8976 C.2       1 <0>         0.1230
     12 C10        -2.4294    0.4371    1.9856 C.ar      1 <0>         0.0303
     13 C11        -1.2876    0.7907    2.7112 C.ar      1 <0>        -0.1432
     14 C12        -1.3973    1.7300    3.7155 C.ar      1 <0>         0.1013
     15 N3         -2.5584    2.2914    3.9939 N.ar      1 <0>        -0.4796
     16 C13        -3.6592    1.9862    3.3336 C.ar      1 <0>         0.1002
     17 C14        -3.6377    1.0612    2.3104 C.ar      1 <0>        -0.1461
     18 C15        -3.5856   -3.2858   -1.1477 C.3       1 <0>         0.1591
     19 H1         -4.6572   -3.1332   -1.0188 H         1 <0>         0.1204
     20 C16        -3.2359   -3.3359   -2.6494 C.3       1 <0>        -0.1328
     21 C17        -2.1225   -4.4085   -2.7445 C.3       1 <0>        -0.1274
     22 C18        -2.5827   -5.4710   -1.7159 C.3       1 <0>        -0.1581
     23 C19        -3.1713   -4.6433   -0.5533 C.3       1 <0>         0.0923
     24 H2         -2.4177   -4.4976    0.2206 H         1 <0>         0.0667
     25 O1         -4.3126   -5.3074   -0.0071 O.3       1 <0>        -0.5586
     26 C20         3.8344   -0.4704   -0.0369 C.3       1 <0>        -0.0826
     27 C21         4.7229    0.7809   -0.0387 C.3       1 <0>        -0.1141
     28 C22         3.7677    1.9494   -0.0234 C.2       1 <0>         0.1731
     29 N4          4.0975    3.2008   -0.0199 N.2       1 <0>        -0.3251
     30 O2          5.4637    3.5729   -0.0309 O.3       1 <0>        -0.4063
     31 H3         -0.9593    1.9179    0.0260 H         1 <0>         0.1268
     32 H4          1.1467    3.1743    0.0078 H         1 <0>         0.1296
     33 H5          1.2348   -1.7622   -0.0190 H         1 <0>         0.1274
     34 H6         -0.9922   -2.1825   -1.6239 H         1 <0>         0.1803
     35 H7         -0.3341    0.3349    2.4889 H         1 <0>         0.1377
     36 H8         -0.5211    2.0093    4.2817 H         1 <0>         0.1589
     37 H9         -4.5887    2.4700    3.5950 H         1 <0>         0.1596
     38 H10        -4.5417    0.8195    1.7710 H         1 <0>         0.1384
     39 H11        -4.1056   -3.6360   -3.2338 H         1 <0>         0.0977
     40 H12        -2.8636   -2.3686   -2.9868 H         1 <0>         0.0846
     41 H13        -2.0808   -4.8341   -3.7471 H         1 <0>         0.0828
     42 H14        -1.1571   -3.9892   -2.4612 H         1 <0>         0.0720
     43 H15        -3.3470   -6.1160   -2.1495 H         1 <0>         0.0855
     44 H16        -1.7338   -6.0619   -1.3720 H         1 <0>         0.0773
     45 H17        -4.1163   -6.1700    0.3834 H         1 <0>         0.3861
     46 H18         4.0339   -1.0696    0.8514 H         1 <0>         0.0900
     47 H19         4.0169   -1.0601   -0.9353 H         1 <0>         0.0895
     48 H20         5.3539    0.7973    0.8500 H         1 <0>         0.0948
     49 H21         5.3368    0.8068   -0.9391 H         1 <0>         0.0944
     50 H22         5.6110    4.5286   -0.0272 H         1 <0>         0.4063
@<TRIPOS>BOND
     1    1    6 ar
     2    1    2 ar
     3    1   31 1
     4    2    3 ar
     5    2   32 1
     6    3   28 1
     7    3    4 ar
     8    4    5 ar
     9    4   26 1
    10    5    6 ar
    11    5   33 1
    12    6    7 1
    13    7   11 1
    14    7    8 2
    15    8    9 1
    16    8   34 1
    17    9   10 1
    18    9   18 1
    19   10   11 2
    20   11   12 1
    21   12   17 ar
    22   12   13 ar
    23   13   14 ar
    24   13   35 1
    25   14   15 ar
    26   14   36 1
    27   15   16 ar
    28   16   17 ar
    29   16   37 1
    30   17   38 1
    31   18   19 1
    32   18   23 1
    33   18   20 1
    34   20   21 1
    35   20   39 1
    36   20   40 1
    37   21   22 1
    38   21   41 1
    39   21   42 1
    40   22   23 1
    41   22   43 1
    42   22   44 1
    43   23   24 1
    44   23   25 1
    45   25   45 1
    46   26   27 1
    47   26   46 1
    48   26   47 1
    49   27   28 1
    50   27   48 1
    51   27   49 1
    52   28   29 2
    53   29   30 1
    54   30   50 1
@<TRIPOS>MOLECULE
CHEMBL1087781
   67    71     0     0     0
SMALL
USER_CHARGES

@<TRIPOS>ATOM
      1 C1         -0.8150    1.5869    1.6411 C.3       1 <0>        -0.0466
      2 N1         -0.7178    0.1338    1.4481 N.4       1 <0>        -0.3827
      3 C2          0.0851   -0.4512    2.5304 C.3       1 <0>        -0.0555
      4 C3         -2.0641   -0.4535    1.4647 C.3       1 <0>        -0.0226
      5 C4         -1.9735   -1.9460    1.1402 C.3       1 <0>         0.1101
      6 N2         -3.3162   -2.5317    1.1567 N.pl3     1 <0>        -0.7322
      7 C5         -3.4876   -3.8861    0.8887 C.ar      1 <0>         0.3851
      8 C6         -2.3764   -4.6773    0.6115 C.ar      1 <0>        -0.2325
      9 C7         -2.5543   -6.0208    0.3464 C.ar      1 <0>        -0.0272
     10 C8         -3.8558   -6.5370    0.3673 C.ar      1 <0>        -0.0755
     11 C9         -4.9178   -5.6827    0.6529 C.ar      1 <0>         0.1733
     12 N3         -4.7049   -4.4064    0.9060 N.ar      1 <0>        -0.5296
     13 C10        -4.0997   -7.9721    0.0890 C.2       1 <0>        -0.2033
     14 C11        -3.6046   -8.7022   -0.9960 C.2       1 <0>         0.1070
     15 N4         -4.0316   -9.9390   -0.9054 N.2       1 <0>        -0.2962
     16 N5         -4.8228  -10.0702    0.2406 N.pl3     1 <0>        -0.3010
     17 C12        -4.8641   -8.8510    0.8671 C.2       1 <0>         0.2797
     18 N6         -5.5513   -8.6873    2.0009 N.2       1 <0>        -0.4669
     19 C13        -6.2048   -9.6849    2.5531 C.2       1 <0>         0.1902
     20 C14        -6.1946  -10.9505    1.9610 C.2       1 <0>        -0.2109
     21 C15        -5.4972  -11.1369    0.7851 C.2       1 <0>         0.2499
     22 C16        -5.4626  -12.4617    0.1324 C.ar      1 <0>        -0.0594
     23 C17        -4.2604  -13.1675    0.0424 C.ar      1 <0>        -0.0847
     24 C18        -4.2310  -14.4046   -0.5677 C.ar      1 <0>        -0.0954
     25 C19        -5.3883  -14.9499   -1.0919 C.ar      1 <0>        -0.1183
     26 C20        -6.5896  -14.2560   -1.0076 C.ar      1 <0>         0.1477
     27 C21        -6.6314  -13.0149   -0.3911 C.ar      1 <0>        -0.0823
     28 N7         -7.7574  -14.8123   -1.5396 N.am      1 <0>        -0.6685
     29 C22        -8.7011  -14.0131   -2.0756 C.2       1 <0>         0.5639
     30 O1         -8.4967  -12.8197   -2.1842 O.2       1 <0>        -0.5075
     31 C23        -9.9844  -14.5877   -2.5313 C.ar      1 <0>        -0.1410
     32 C24       -10.2245  -15.9570   -2.4027 C.ar      1 <0>        -0.0535
     33 C25       -11.4244  -16.4867   -2.8296 C.ar      1 <0>        -0.1219
     34 C26       -12.3891  -15.6641   -3.3843 C.ar      1 <0>        -0.0403
     35 C27       -12.1574  -14.3066   -3.5151 C.ar      1 <0>        -0.1880
     36 C28       -10.9637  -13.7629   -3.0869 C.ar      1 <0>        -0.0066
     37 C29       -13.2136  -13.4185   -4.1209 C.3       1 <0>         0.5099
     38 F1        -14.3274  -14.1898   -4.4697 F         1 <0>        -0.1731
     39 F2        -13.5934  -12.4446   -3.1911 F         1 <0>        -0.1729
     40 F3        -12.7004  -12.7967   -5.2642 F         1 <0>        -0.1725
     41 H1          0.1840    2.0227    1.6287 H         1 <0>         0.1278
     42 H2         -1.4107    2.0209    0.8380 H         1 <0>         0.1252
     43 H3         -1.2905    1.7951    2.5995 H         1 <0>         0.1237
     44 H4          0.1572   -1.5293    2.3872 H         1 <0>         0.1254
     45 H5          1.0841   -0.0153    2.5180 H         1 <0>         0.1282
     46 H6         -0.3904   -0.2429    3.4888 H         1 <0>         0.1249
     47 H7         -2.5054   -0.3227    2.4528 H         1 <0>         0.1382
     48 H8         -2.6864    0.0431    0.7202 H         1 <0>         0.1394
     49 H9         -1.5322   -2.0768    0.1521 H         1 <0>         0.0818
     50 H10        -1.3512   -2.4426    1.8847 H         1 <0>         0.0818
     51 H11        -4.0857   -1.9753    1.3546 H         1 <0>         0.4100
     52 H12        -1.3866   -4.2453    0.6035 H         1 <0>         0.1260
     53 H13        -1.7100   -6.6579    0.1278 H         1 <0>         0.1367
     54 H14        -5.9256   -6.0705    0.6717 H         1 <0>         0.1580
     55 H15        -2.9735   -8.3114   -1.7805 H         1 <0>         0.1990
     56 H16        -6.7527   -9.5257    3.4700 H         1 <0>         0.1863
     57 H17        -6.7308  -11.7709    2.4147 H         1 <0>         0.1714
     58 H18        -3.3541  -12.7446    0.4500 H         1 <0>         0.1260
     59 H19        -3.3006  -14.9487   -0.6364 H         1 <0>         0.1382
     60 H20        -5.3587  -15.9184   -1.5690 H         1 <0>         0.1353
     61 H21        -7.5648  -12.4761   -0.3206 H         1 <0>         0.1413
     62 H22        -7.8882  -15.7733   -1.5227 H         1 <0>         0.4143
     63 H23        -9.4723  -16.6001   -1.9702 H         1 <0>         0.1376
     64 H24       -11.6113  -17.5458   -2.7310 H         1 <0>         0.1479
     65 H25       -13.3269  -16.0839   -3.7170 H         1 <0>         0.1488
     66 H26       -10.7860  -12.7022   -3.1851 H         1 <0>         0.1490
     67 H27        -0.2776   -0.0589    0.5609 H         1 <0>         0.4295
@<TRIPOS>BOND
     1    1    2 1
     2    1   41 1
     3    1   42 1
     4    1   43 1
     5    2    3 1
     6    2    4 1
     7    2   67 1
     8    3   44 1
     9    3   45 1
    10    3   46 1
    11    4    5 1
    12    4   47 1
    13    4   48 1
    14    5    6 1
    15    5   49 1
    16    5   50 1
    17    6    7 1
    18    6   51 1
    19    7   12 ar
    20    7    8 ar
    21    8    9 ar
    22    8   52 1
    23    9   10 ar
    24    9   53 1
    25   10   11 ar
    26   10   13 1
    27   11   12 ar
    28   11   54 1
    29   13   17 2
    30   13   14 1
    31   14   15 2
    32   14   55 1
    33   15   16 1
    34   16   21 1
    35   16   17 1
    36   17   18 1
    37   18   19 2
    38   19   20 1
    39   19   56 1
    40   20   21 2
    41   20   57 1
    42   21   22 1
    43   22   27 ar
    44   22   23 ar
    45   23   24 ar
    46   23   58 1
    47   24   25 ar
    48   24   59 1
    49   25   26 ar
    50   25   60 1
    51   26   27 ar
    52   26   28 1
    53   27   61 1
    54   28   29 am
    55   28   62 1
    56   29   30 2
    57   29   31 1
    58   31   36 ar
    59   31   32 ar
    60   32   33 ar
    61   32   63 1
    62   33   34 ar
    63   33   64 1
    64   34   35 ar
    65   34   65 1
    66   35   36 ar
    67   35   37 1
    68   36   66 1
    69   37   38 1
    70   37   39 1
    71   37   40 1
@<TRIPOS>MOLECULE
CHEMBL199006
   43    46     0     0     0
SMALL
USER_CHARGES

@<TRIPOS>ATOM
      1 C1         -0.1037    1.4732    0.1711 C.3       1 <0>        -0.1331
      2 C2          0.1274   -0.0157    0.2006 C.2       1 <0>         0.0277
      3 C3          0.2032   -0.7899   -1.0404 C.ar      1 <0>        -0.1437
      4 C4          0.0637   -0.1689   -2.2868 C.ar      1 <0>        -0.0417
      5 C5          0.1388   -0.9138   -3.4279 C.ar      1 <0>        -0.1368
      6 C6          0.3531   -2.2890   -3.3602 C.ar      1 <0>         0.1423
      7 C7          0.4934   -2.9200   -2.1354 C.ar      1 <0>        -0.1401
      8 C8          0.4202   -2.1781   -0.9657 C.ar      1 <0>         0.1628
      9 O1          0.5547   -2.7735    0.2387 O.3       1 <0>        -0.2677
     10 C9          0.4865   -2.0699    1.3797 C.2       1 <0>         0.5166
     11 O2          0.6142   -2.6499    2.4430 O.2       1 <0>        -0.4516
     12 C10         0.2768   -0.6752    1.3785 C.2       1 <0>        -0.2084
     13 C11         0.2127    0.0803    2.6808 C.3       1 <0>        -0.0248
     14 C12         1.6083    0.4359    3.1245 C.ar      1 <0>        -0.0831
     15 C13         2.2965   -0.4036    3.9804 C.ar      1 <0>        -0.1048
     16 C14         3.5766   -0.0774    4.3873 C.ar      1 <0>        -0.1190
     17 C15         4.1689    1.0880    3.9380 C.ar      1 <0>        -0.1205
     18 C16         3.4811    1.9271    3.0814 C.ar      1 <0>        -0.1215
     19 C17         2.2025    1.5988    2.6710 C.ar      1 <0>        -0.1180
     20 O3          0.4245   -3.0166   -4.5046 O.3       1 <0>        -0.2896
     21 C18        -0.6367   -3.7673   -4.8417 C.2       1 <0>         0.4933
     22 O4         -1.6508   -3.7081   -4.1876 O.2       1 <0>        -0.4821
     23 C19        -0.5626   -4.6838   -6.0357 C.3       1 <0>        -0.1728
     24 C20        -1.4170   -4.3274   -7.2539 C.3       1 <0>        -0.1451
     25 C21        -1.8047   -5.5130   -6.3680 C.3       1 <0>        -0.1427
     26 H1          0.8545    1.9906    0.2182 H         1 <0>         0.0939
     27 H2         -0.6172    1.7430   -0.7518 H         1 <0>         0.0821
     28 H3         -0.7155    1.7629    1.0254 H         1 <0>         0.0901
     29 H4         -0.1033    0.8965   -2.3455 H         1 <0>         0.1515
     30 H5          0.0311   -0.4343   -4.3897 H         1 <0>         0.1461
     31 H6          0.6589   -3.9863   -2.0911 H         1 <0>         0.1501
     32 H7         -0.3684    0.9923    2.5436 H         1 <0>         0.0934
     33 H8         -0.2620   -0.5423    3.4391 H         1 <0>         0.0934
     34 H9          1.8338   -1.3141    4.3314 H         1 <0>         0.1281
     35 H10         4.1140   -0.7330    5.0566 H         1 <0>         0.1227
     36 H11         5.1688    1.3432    4.2565 H         1 <0>         0.1215
     37 H12         3.9437    2.8378    2.7306 H         1 <0>         0.1221
     38 H13         1.6666    2.2524    1.9988 H         1 <0>         0.1211
     39 H14         0.4105   -5.1394   -6.2190 H         1 <0>         0.1424
     40 H15        -2.0327   -3.4300   -7.1916 H         1 <0>         0.1041
     41 H16        -1.0060   -4.5484   -8.2389 H         1 <0>         0.1155
     42 H17        -1.6488   -6.5140   -6.7702 H         1 <0>         0.1149
     43 H18        -2.6755   -5.3957   -5.7229 H         1 <0>         0.1118
@<TRIPOS>BOND
     1    1    2 1
     2    1   26 1
     3    1   27 1
     4    1   28 1
     5    2   12 2
     6    2    3 1
     7    3    8 ar
     8    3    4 ar
     9    4    5 ar
    10    4   29 1
    11    5    6 ar
    12    5   30 1
    13    6    7 ar
    14    6   20 1
    15    7    8 ar
    16    7   31 1
    17    8    9 1
    18    9   10 1
    19   10   11 2
    20   10   12 1
    21   12   13 1
    22   13   14 1
    23   13   32 1
    24   13   33 1
    25   14   19 ar
    26   14   15 ar
    27   15   16 ar
    28   15   34 1
    29   16   17 ar
    30   16   35 1
    31   17   18 ar
    32   17   36 1
    33   18   19 ar
    34   18   37 1
    35   19   38 1
    36   20   21 1
    37   21   22 2
    38   21   23 1
    39   23   25 1
    40   23   24 1
    41   23   39 1
    42   24   25 1
    43   24   40 1
    44   24   41 1
    45   25   42 1
    46   25   43 1
@<TRIPOS>MOLECULE
CHEMBL1087906
   62    67     0     0     0
SMALL
USER_CHARGES

@<TRIPOS>ATOM
      1 C1         -0.0053    1.3819    0.0194 C.ar      1 <0>        -0.0977
      2 C2          1.1799    2.0890    0.0213 C.ar      1 <0>        -0.0825
      3 C3          2.3990    1.4080    0.0092 C.ar      1 <0>        -0.0571
      4 C4          2.4131    0.0126   -0.0049 C.ar      1 <0>        -0.0821
      5 C5          1.2172   -0.6877   -0.0067 C.ar      1 <0>         0.1418
      6 C6          0.0089   -0.0001    0.0054 C.ar      1 <0>        -0.1186
      7 N1          1.2258   -2.0863   -0.0212 N.am      1 <0>        -0.6675
      8 C7          2.1817   -2.7473   -0.7037 C.2       1 <0>         0.5627
      9 O1          3.0841   -2.1313   -1.2366 O.2       1 <0>        -0.5068
     10 C8          2.1327   -4.2212   -0.8044 C.ar      1 <0>        -0.1387
     11 C9          1.0945   -4.9312   -0.1985 C.ar      1 <0>        -0.0539
     12 C10         1.0545   -6.3064   -0.2967 C.ar      1 <0>        -0.1227
     13 C11         2.0404   -6.9824   -0.9938 C.ar      1 <0>        -0.0417
     14 C12         3.0722   -6.2850   -1.5961 C.ar      1 <0>        -0.1881
     15 C13         3.1210   -4.9087   -1.5105 C.ar      1 <0>        -0.0065
     16 C14         4.1421   -7.0296   -2.3524 C.3       1 <0>         0.5100
     17 F1          3.8771   -8.4024   -2.3048 F         1 <0>        -0.1741
     18 F2          4.1541   -6.6029   -3.6847 F         1 <0>        -0.1724
     19 F3          5.3882   -6.7747   -1.7698 F         1 <0>        -0.1725
     20 C15         3.6693    2.1621    0.0107 C.2       1 <0>         0.2456
     21 C16         4.5375    2.0747    1.0795 C.2       1 <0>        -0.2112
     22 C17         5.7306    2.8013    1.0486 C.2       1 <0>         0.1851
     23 N2          6.0215    3.5581    0.0143 N.2       1 <0>        -0.4619
     24 C18         5.1932    3.6550   -1.0294 C.2       1 <0>         0.2738
     25 N3          4.0115    2.9597   -1.0551 N.pl3     1 <0>        -0.3021
     26 N4          3.3670    3.2502   -2.2620 N.2       1 <0>        -0.2983
     27 C19         4.1076    4.0790   -2.9583 C.2       1 <0>         0.1053
     28 C20         5.2635    4.3747   -2.2290 C.2       1 <0>        -0.1806
     29 C21         6.3656    5.2702   -2.6536 C.ar      1 <0>        -0.1592
     30 C22         6.8542    6.2614   -1.7973 C.ar      1 <0>         0.2164
     31 N5          7.8383    7.0397   -2.2126 N.ar      1 <0>        -0.5666
     32 C23         8.3600    6.8897   -3.4212 C.ar      1 <0>         0.5627
     33 N6          7.9242    5.9627   -4.2615 N.ar      1 <0>        -0.5665
     34 C24         6.9471    5.1416   -3.9183 C.ar      1 <0>         0.2030
     35 N7          9.3905    7.7265   -3.8178 N.pl3     1 <0>        -0.5892
     36 C25         9.9111    8.7667   -2.9166 C.3       1 <0>         0.0932
     37 C26        11.4376    8.6376   -2.8600 C.3       1 <0>         0.0468
     38 O2         11.9591    8.6317   -4.1910 O.3       1 <0>        -0.3803
     39 C27        11.5193    7.5287   -4.9871 C.3       1 <0>         0.0467
     40 C28        10.0009    7.5973   -5.1506 C.3       1 <0>         0.0931
     41 H1         -0.9471    1.9103    0.0333 H         1 <0>         0.1373
     42 H2          1.1645    3.1688    0.0318 H         1 <0>         0.1268
     43 H3          3.3528   -0.5197   -0.0146 H         1 <0>         0.1461
     44 H4         -0.9219   -0.5478    0.0040 H         1 <0>         0.1337
     45 H5          0.5438   -2.5805    0.4600 H         1 <0>         0.4134
     46 H6          0.3246   -4.4049    0.3461 H         1 <0>         0.1375
     47 H7          0.2521   -6.8569    0.1719 H         1 <0>         0.1470
     48 H8          2.0044   -8.0593   -1.0677 H         1 <0>         0.1479
     49 H9          3.9244   -4.3650   -1.9852 H         1 <0>         0.1496
     50 H10         4.2977    1.4529    1.9294 H         1 <0>         0.1691
     51 H11         6.4176    2.7409    1.8797 H         1 <0>         0.1845
     52 H12         3.8608    4.4753   -3.9322 H         1 <0>         0.2003
     53 H13         6.4334    6.3895   -0.8109 H         1 <0>         0.1633
     54 H14         6.6001    4.3850   -4.6065 H         1 <0>         0.1668
     55 H15         9.6398    9.7515   -3.2971 H         1 <0>         0.0738
     56 H16         9.4939    8.6304   -1.9188 H         1 <0>         0.1076
     57 H17        11.8541    9.4812   -2.3094 H         1 <0>         0.1081
     58 H18        11.7060    7.7072   -2.3596 H         1 <0>         0.0552
     59 H19        11.9947    7.5744   -5.9669 H         1 <0>         0.1084
     60 H20        11.7880    6.5942   -4.4945 H         1 <0>         0.0547
     61 H21         9.6431    6.6869   -5.6315 H         1 <0>         0.1076
     62 H22         9.7388    8.4623   -5.7598 H         1 <0>         0.0735
@<TRIPOS>BOND
     1    1    6 ar
     2    1    2 ar
     3    1   41 1
     4    2    3 ar
     5    2   42 1
     6    3    4 ar
     7    3   20 1
     8    4    5 ar
     9    4   43 1
    10    5    6 ar
    11    5    7 1
    12    6   44 1
    13    7    8 am
    14    7   45 1
    15    8    9 2
    16    8   10 1
    17   10   15 ar
    18   10   11 ar
    19   11   12 ar
    20   11   46 1
    21   12   13 ar
    22   12   47 1
    23   13   14 ar
    24   13   48 1
    25   14   15 ar
    26   14   16 1
    27   15   49 1
    28   16   17 1
    29   16   18 1
    30   16   19 1
    31   20   25 1
    32   20   21 2
    33   21   22 1
    34   21   50 1
    35   22   23 2
    36   22   51 1
    37   23   24 1
    38   24   28 2
    39   24   25 1
    40   25   26 1
    41   26   27 2
    42   27   28 1
    43   27   52 1
    44   28   29 1
    45   29   34 ar
    46   29   30 ar
    47   30   31 ar
    48   30   53 1
    49   31   32 ar
    50   32   33 ar
    51   32   35 1
    52   33   34 ar
    53   34   54 1
    54   35   40 1
    55   35   36 1
    56   36   37 1
    57   36   55 1
    58   36   56 1
    59   37   38 1
    60   37   57 1
    61   37   58 1
    62   38   39 1
    63   39   40 1
    64   39   59 1
    65   39   60 1
    66   40   61 1
    67   40   62 1
@<TRIPOS>MOLECULE
CHEMBL429498
   70    75     0     0     0
SMALL
USER_CHARGES

@<TRIPOS>ATOM
      1 C1         -0.0050    1.3818    0.0199 C.ar      1 <0>        -0.0959
      2 C2          1.1809    2.0885    0.0218 C.ar      1 <0>        -0.0616
      3 C3          2.3983    1.4081    0.0090 C.ar      1 <0>        -0.0416
      4 C4          2.4130    0.0146   -0.0052 C.ar      1 <0>        -0.0929
      5 C5          1.2174   -0.6867   -0.0065 C.ar      1 <0>         0.1516
      6 C6          0.0091   -0.0000    0.0058 C.ar      1 <0>        -0.1087
      7 N1          1.2269   -2.0861   -0.0212 N.am      1 <0>        -0.6772
      8 C7          2.1831   -2.7463   -0.7041 C.2       1 <0>         0.5189
      9 O1          3.0828   -2.1310   -1.2361 O.2       1 <0>        -0.5095
     10 C8          2.1342   -4.2490   -0.8067 C.3       1 <0>        -0.1012
     11 C9          3.3084   -4.7356   -1.6164 C.ar      1 <0>        -0.0728
     12 C10         3.1961   -4.8639   -2.9882 C.ar      1 <0>        -0.0897
     13 C11         4.2726   -5.3101   -3.7314 C.ar      1 <0>        -0.1072
     14 C12         5.4628   -5.6285   -3.1020 C.ar      1 <0>        -0.0300
     15 C13         5.5747   -5.5000   -1.7290 C.ar      1 <0>        -0.1094
     16 C14         4.4992   -5.0482   -0.9876 C.ar      1 <0>        -0.0929
     17 Cl1         6.8152   -6.1897   -4.0346 Cl        1 <0>        -0.0633
     18 C15         3.6723    2.1646    0.0100 C.2       1 <0>         0.1462
     19 C16         3.9689    3.2724   -0.7653 C.2       1 <0>         0.1021
     20 N2          5.2545    3.6385   -0.4337 N.pl3     1 <0>        -0.4986
     21 H1          5.7540    4.3824   -0.8052 H         1 <0>         0.4633
     22 C17         5.6906    2.7719    0.5036 C.cat     1 <0>         0.3769
     23 N3          4.7521    1.9055    0.7685 N.pl3     1 <0>        -0.4691
     24 C18         7.0513    2.8040    1.1506 C.3       1 <0>        -0.1448
     25 C19         7.6945    4.1738    1.3755 C.3       1 <0>        -0.1424
     26 C20         8.2343    3.2448    0.2863 C.3       1 <0>        -0.1431
     27 C21         3.0868    3.9276   -1.7480 C.ar      1 <0>         0.2595
     28 C22         3.2681    5.2775   -2.0792 C.ar      1 <0>        -0.2746
     29 C23         2.4167    5.8472   -3.0059 C.ar      1 <0>         0.2165
     30 N4          1.4616    5.1078   -3.5503 N.ar      1 <0>        -0.5467
     31 C24         1.3116    3.8332   -3.2197 C.ar      1 <0>         0.5856
     32 N5          2.1065    3.2440   -2.3409 N.ar      1 <0>        -0.5371
     33 N6          0.3003    3.0976   -3.8132 N.pl3     1 <0>        -0.6836
     34 C25        -0.5871    3.7294   -4.7927 C.3       1 <0>         0.1154
     35 C26        -1.6085    2.7049   -5.2909 C.3       1 <0>         0.1425
     36 N7         -2.4959    3.3367   -6.2705 N.am      1 <0>        -0.6320
     37 C27        -3.7568    4.0259   -5.9580 C.3       1 <0>         0.0914
     38 C28        -4.2733    4.4921   -7.3330 C.3       1 <0>         0.0901
     39 N8         -3.2486    4.0162   -8.2742 N.am      1 <0>        -0.7392
     40 C29        -2.2847    3.3834   -7.5924 C.2       1 <0>         0.6997
     41 O2         -1.3085    2.8925   -8.1256 O.2       1 <0>        -0.5810
     42 H2         -0.9467    1.9104    0.0341 H         1 <0>         0.1387
     43 H3          1.1659    3.1684    0.0328 H         1 <0>         0.1219
     44 H4          3.3529   -0.5171   -0.0155 H         1 <0>         0.1422
     45 H5         -0.9216   -0.5479    0.0044 H         1 <0>         0.1380
     46 H6          0.5454   -2.5808    0.4601 H         1 <0>         0.4184
     47 H7          2.1769   -4.6830    0.1923 H         1 <0>         0.1130
     48 H8          1.2070   -4.5499   -1.2943 H         1 <0>         0.1139
     49 H9          2.2668   -4.6156   -3.4794 H         1 <0>         0.1307
     50 H10         4.1846   -5.4106   -4.8031 H         1 <0>         0.1363
     51 H11         6.5034   -5.7487   -1.2371 H         1 <0>         0.1353
     52 H12         4.5879   -4.9433    0.0836 H         1 <0>         0.1293
     53 H13         7.2344    2.0327    1.8987 H         1 <0>         0.1644
     54 H14         7.1335    5.0519    1.0555 H         1 <0>         0.1085
     55 H15         8.3009    4.3041    2.2719 H         1 <0>         0.1323
     56 H16         9.1957    2.7638    0.4660 H         1 <0>         0.1323
     57 H17         8.0284    3.5117   -0.7503 H         1 <0>         0.1087
     58 H18         4.0545    5.8584   -1.6204 H         1 <0>         0.1451
     59 H19         2.5282    6.8849   -3.2835 H         1 <0>         0.1817
     60 H20         0.1792    2.1637   -3.5804 H         1 <0>         0.4180
     61 H21        -1.1086    4.5645   -4.3250 H         1 <0>         0.0760
     62 H22         0.0018    4.0942   -5.6343 H         1 <0>         0.0787
     63 H23        -1.0869    1.8698   -5.7587 H         1 <0>         0.0926
     64 H24        -2.1973    2.3401   -4.4494 H         1 <0>         0.0888
     65 H25        -4.4649    3.3375   -5.4966 H         1 <0>         0.0859
     66 H26        -3.5742    4.8814   -5.3077 H         1 <0>         0.0840
     67 H27        -5.2379    4.0353   -7.5543 H         1 <0>         0.0870
     68 H28        -4.3473    5.5791   -7.3654 H         1 <0>         0.0864
     69 H29        -3.2659    4.1437   -9.2356 H         1 <0>         0.4333
     70 H30         4.8231    1.1833    1.4122 H         1 <0>         0.4650
@<TRIPOS>BOND
     1    1    6 ar
     2    1    2 ar
     3    1   42 1
     4    2    3 ar
     5    2   43 1
     6    3    4 ar
     7    3   18 1
     8    4    5 ar
     9    4   44 1
    10    5    6 ar
    11    5    7 1
    12    6   45 1
    13    7    8 am
    14    7   46 1
    15    8    9 2
    16    8   10 1
    17   10   11 1
    18   10   47 1
    19   10   48 1
    20   11   16 ar
    21   11   12 ar
    22   12   13 ar
    23   12   49 1
    24   13   14 ar
    25   13   50 1
    26   14   15 ar
    27   14   17 1
    28   15   16 ar
    29   15   51 1
    30   16   52 1
    31   18   23 1
    32   18   19 2
    33   19   20 1
    34   19   27 1
    35   20   21 1
    36   20   22 1
    37   22   23 2
    38   22   24 1
    39   23   70 1
    40   24   26 1
    41   24   25 1
    42   24   53 1
    43   25   26 1
    44   25   54 1
    45   25   55 1
    46   26   56 1
    47   26   57 1
    48   27   32 ar
    49   27   28 ar
    50   28   29 ar
    51   28   58 1
    52   29   30 ar
    53   29   59 1
    54   30   31 ar
    55   31   32 ar
    56   31   33 1
    57   33   34 1
    58   33   60 1
    59   34   35 1
    60   34   61 1
    61   34   62 1
    62   35   36 1
    63   35   63 1
    64   35   64 1
    65   36   40 am
    66   36   37 1
    67   37   38 1
    68   37   65 1
    69   37   66 1
    70   38   39 1
    71   38   67 1
    72   38   68 1
    73   39   40 am
    74   39   69 1
    75   40   41 2
@<TRIPOS>MOLECULE
CHEMBL429498__1
   69    74     0     0     0
SMALL
USER_CHARGES

@<TRIPOS>ATOM
      1 C1          0.0041    1.3797    0.1747 C.ar      1 <0>        -0.1086
      2 C2          1.1741    2.0887   -0.0111 C.ar      1 <0>        -0.0753
      3 C3          2.3776    1.4104   -0.2031 C.ar      1 <0>         0.0148
      4 C4          2.3945    0.0169   -0.2062 C.ar      1 <0>        -0.0850
      5 C5          1.2151   -0.6867   -0.0184 C.ar      1 <0>         0.1369
      6 C6          0.0205   -0.0021    0.1717 C.ar      1 <0>        -0.1374
      7 N1          1.2269   -2.0861   -0.0212 N.am      1 <0>        -0.6758
      8 C7          2.2965   -2.7518    0.4576 C.2       1 <0>         0.5088
      9 O1          3.2071   -2.1425    0.9779 O.2       1 <0>        -0.4978
     10 C8          2.3611   -4.2533    0.3464 C.3       1 <0>        -0.1011
     11 C9          3.6495   -4.7470    0.9526 C.ar      1 <0>        -0.0661
     12 C10         4.7814   -4.8659    0.1678 C.ar      1 <0>        -0.0903
     13 C11         5.9633   -5.3186    0.7233 C.ar      1 <0>        -0.1082
     14 C12         6.0134   -5.6527    2.0649 C.ar      1 <0>        -0.0316
     15 C13         4.8804   -5.5335    2.8497 C.ar      1 <0>        -0.1088
     16 C14         3.7005   -5.0753    2.2945 C.ar      1 <0>        -0.0907
     17 Cl1         7.4974   -6.2219    2.7631 Cl        1 <0>        -0.0707
     18 C15         3.6342    2.1693   -0.4037 C.2       1 <0>         0.1170
     19 C16         3.7661    3.3766   -1.0680 C.2       1 <0>         0.0024
     20 N2          5.1028    3.7029   -1.0071 N.pl3     1 <0>        -0.5479
     21 H1          5.5184    4.4951   -1.3818 H         1 <0>         0.4221
     22 C17         5.7270    2.7175   -0.3297 C.2       1 <0>         0.2722
     23 N3          4.8566    1.8153    0.0309 N.2       1 <0>        -0.4637
     24 C18         7.2031    2.6695   -0.0296 C.3       1 <0>        -0.0814
     25 C19         8.1180    3.5948   -0.8345 C.3       1 <0>        -0.1749
     26 C20         8.1240    2.0888   -1.1046 C.3       1 <0>        -0.1528
     27 C21         2.6925    4.1556   -1.7111 C.ar      1 <0>         0.2984
     28 C22         2.8245    5.5398   -1.8876 C.ar      1 <0>        -0.2903
     29 C23         1.7918    6.2265   -2.4960 C.ar      1 <0>         0.2021
     30 N4          0.7156    5.5629   -2.8918 N.ar      1 <0>        -0.5690
     31 C24         0.6157    4.2535   -2.7130 C.ar      1 <0>         0.5768
     32 N5          1.5816    3.5537   -2.1398 N.ar      1 <0>        -0.5437
     33 N6         -0.5266    3.6000   -3.1419 N.pl3     1 <0>        -0.6931
     34 C25        -1.6053    4.3553   -3.7840 C.3       1 <0>         0.1217
     35 C26        -2.7422    3.4024   -4.1586 C.3       1 <0>         0.1414
     36 N7         -3.8208    4.1577   -4.8007 N.am      1 <0>        -0.6302
     37 C27        -4.9525    4.7868   -4.1036 C.3       1 <0>         0.0908
     38 C28        -5.7697    5.4362   -5.2373 C.3       1 <0>         0.0914
     39 N8         -5.0116    5.1040   -6.4528 N.am      1 <0>        -0.7413
     40 C29        -3.9298    4.3899   -6.1154 C.2       1 <0>         0.6992
     41 O2         -3.1219    3.9857   -6.9292 O.2       1 <0>        -0.5813
     42 H2         -0.9261    1.9067    0.3274 H         1 <0>         0.1232
     43 H3          1.1573    3.1685   -0.0081 H         1 <0>         0.1131
     44 H4          3.3237   -0.5132   -0.3548 H         1 <0>         0.1379
     45 H5         -0.8977   -0.5517    0.3175 H         1 <0>         0.1234
     46 H6          0.4654   -2.5768   -0.3676 H         1 <0>         0.4103
     47 H7          1.5174   -4.6937    0.8777 H         1 <0>         0.1083
     48 H8          2.3197   -4.5420   -0.7039 H         1 <0>         0.1093
     49 H9          4.7420   -4.6054   -0.8795 H         1 <0>         0.1300
     50 H10         6.8474   -5.4118    0.1100 H         1 <0>         0.1339
     51 H11         4.9188   -5.7944    3.8970 H         1 <0>         0.1340
     52 H12         2.8171   -4.9777    2.9081 H         1 <0>         0.1301
     53 H13         7.4653    2.4834    1.0119 H         1 <0>         0.1385
     54 H14         7.6523    4.2381   -1.5810 H         1 <0>         0.0915
     55 H15         8.9823    4.0177   -0.3225 H         1 <0>         0.1112
     56 H16         8.9923    1.5210   -0.7703 H         1 <0>         0.1101
     57 H17         7.6623    1.7414   -2.0288 H         1 <0>         0.0981
     58 H18         3.7124    6.0572   -1.5554 H         1 <0>         0.1377
     59 H19         1.8608    7.2937   -2.6472 H         1 <0>         0.1698
     60 H20        -0.6129    2.6419   -3.0174 H         1 <0>         0.4157
     61 H21        -1.9784    5.1129   -3.0949 H         1 <0>         0.0701
     62 H22        -1.2247    4.8385   -4.6839 H         1 <0>         0.0729
     63 H23        -2.3690    2.6448   -4.8477 H         1 <0>         0.0923
     64 H24        -3.1227    2.9192   -3.2587 H         1 <0>         0.0890
     65 H25        -5.5478    4.0353   -3.5849 H         1 <0>         0.0852
     66 H26        -4.5981    5.5446   -3.4049 H         1 <0>         0.0842
     67 H27        -6.7708    5.0072   -5.2815 H         1 <0>         0.0848
     68 H28        -5.8210    6.5165   -5.1016 H         1 <0>         0.0846
     69 H29        -5.2543    5.3643   -7.3552 H         1 <0>         0.4314
@<TRIPOS>BOND
     1    1    6 ar
     2    1    2 ar
     3    1   42 1
     4    2    3 ar
     5    2   43 1
     6    3    4 ar
     7    3   18 1
     8    4    5 ar
     9    4   44 1
    10    5    6 ar
    11    5    7 1
    12    6   45 1
    13    7    8 am
    14    7   46 1
    15    8    9 2
    16    8   10 1
    17   10   11 1
    18   10   47 1
    19   10   48 1
    20   11   16 ar
    21   11   12 ar
    22   12   13 ar
    23   12   49 1
    24   13   14 ar
    25   13   50 1
    26   14   15 ar
    27   14   17 1
    28   15   16 ar
    29   15   51 1
    30   16   52 1
    31   18   23 1
    32   18   19 2
    33   19   20 1
    34   19   27 1
    35   20   21 1
    36   20   22 1
    37   22   23 2
    38   22   24 1
    39   24   26 1
    40   24   25 1
    41   24   53 1
    42   25   26 1
    43   25   54 1
    44   25   55 1
    45   26   56 1
    46   26   57 1
    47   27   32 ar
    48   27   28 ar
    49   28   29 ar
    50   28   58 1
    51   29   30 ar
    52   29   59 1
    53   30   31 ar
    54   31   32 ar
    55   31   33 1
    56   33   34 1
    57   33   60 1
    58   34   35 1
    59   34   61 1
    60   34   62 1
    61   35   36 1
    62   35   63 1
    63   35   64 1
    64   36   40 am
    65   36   37 1
    66   37   38 1
    67   37   65 1
    68   37   66 1
    69   38   39 1
    70   38   67 1
    71   38   68 1
    72   39   40 am
    73   39   69 1
    74   40   41 2
@<TRIPOS>MOLECULE
CHEMBL429498__2
   69    74     0     0     0
SMALL
USER_CHARGES

@<TRIPOS>ATOM
      1 C1          0.0042    1.3800    0.1751 C.ar      1 <0>        -0.1147
      2 C2          1.1735    2.0891   -0.0107 C.ar      1 <0>        -0.0618
      3 C3          2.3786    1.4100   -0.2029 C.ar      1 <0>        -0.0203
      4 C4          2.3946    0.0146   -0.2061 C.ar      1 <0>        -0.1032
      5 C5          1.2148   -0.6876   -0.0186 C.ar      1 <0>         0.1326
      6 C6          0.0205   -0.0021    0.1719 C.ar      1 <0>        -0.1288
      7 N1          1.2255   -2.0870   -0.0214 N.am      1 <0>        -0.6750
      8 C7          2.2944   -2.7537    0.4577 C.2       1 <0>         0.5113
      9 O1          3.2052   -2.1452    0.9784 O.2       1 <0>        -0.5061
     10 C8          2.3578   -4.2553    0.3464 C.3       1 <0>        -0.1011
     11 C9          3.6455   -4.7500    0.9531 C.ar      1 <0>        -0.0678
     12 C10         4.7776   -4.8698    0.1687 C.ar      1 <0>        -0.0920
     13 C11         5.9589   -5.3235    0.7245 C.ar      1 <0>        -0.1086
     14 C12         6.0083   -5.6577    2.0662 C.ar      1 <0>        -0.0313
     15 C13         4.8751   -5.5376    2.8507 C.ar      1 <0>        -0.1081
     16 C14         3.6958   -5.0784    2.2950 C.ar      1 <0>        -0.0906
     17 Cl1         7.4916   -6.2282    2.7649 Cl        1 <0>        -0.0682
     18 C15         3.6316    2.1661   -0.4025 C.2       1 <0>         0.0843
     19 C16         4.0639    3.2637    0.3215 C.2       1 <0>         0.0437
     20 N2          5.2521    3.6417   -0.1890 N.2       1 <0>        -0.4510
     21 H1          4.5971    1.2067   -1.9999 H         1 <0>         0.4220
     22 C17         5.5744    2.8513   -1.1734 C.2       1 <0>         0.2542
     23 N3          4.6039    1.9172   -1.3396 N.pl3     1 <0>        -0.5563
     24 C18         6.8328    2.9546   -1.9961 C.3       1 <0>        -0.0776
     25 C19         7.2274    1.7403   -2.8391 C.3       1 <0>        -0.1752
     26 C20         8.0226    2.0879   -1.5790 C.3       1 <0>        -0.1542
     27 C21         3.3519    3.9045    1.4483 C.ar      1 <0>         0.3067
     28 C22         4.0573    4.6353    2.4116 C.ar      1 <0>        -0.2579
     29 C23         3.3487    5.2164    3.4459 C.ar      1 <0>         0.1930
     30 N4          2.0335    5.0663    3.4956 N.ar      1 <0>        -0.5704
     31 C24         1.3903    4.3690    2.5703 C.ar      1 <0>         0.5713
     32 N5          2.0280    3.7999    1.5597 N.ar      1 <0>        -0.5601
     33 N6          0.0155    4.2366    2.6603 N.pl3     1 <0>        -0.6985
     34 C25        -0.7098    4.8631    3.7683 C.3       1 <0>         0.1224
     35 C26        -2.2044    4.5656    3.6325 C.3       1 <0>         0.1413
     36 N7         -2.9297    5.1922    4.7405 N.am      1 <0>        -0.6300
     37 C27        -3.2078    4.5636    6.0405 C.3       1 <0>         0.0907
     38 C28        -3.9853    5.6455    6.8150 C.3       1 <0>         0.0916
     39 N8         -4.0627    6.7688    5.8691 N.am      1 <0>        -0.7415
     40 C29        -3.4398    6.4307    4.7324 C.2       1 <0>         0.6994
     41 O2         -3.3492    7.1788    3.7783 O.2       1 <0>        -0.5809
     42 H2         -0.9261    1.9068    0.3280 H         1 <0>         0.1277
     43 H3          1.1565    3.1689   -0.0079 H         1 <0>         0.1593
     44 H4          3.3234   -0.5162   -0.3545 H         1 <0>         0.1286
     45 H5         -0.8977   -0.5515    0.3182 H         1 <0>         0.1252
     46 H6          0.4637   -2.5772   -0.3681 H         1 <0>         0.4118
     47 H7          1.5135   -4.6949    0.8775 H         1 <0>         0.1096
     48 H8          2.3165   -4.5438   -0.7038 H         1 <0>         0.1102
     49 H9          4.7388   -4.6092   -0.8786 H         1 <0>         0.1295
     50 H10         6.8431   -5.4174    0.1116 H         1 <0>         0.1345
     51 H11         4.9130   -5.7986    3.8979 H         1 <0>         0.1349
     52 H12         2.8123   -4.9801    2.9083 H         1 <0>         0.1303
     53 H13         7.0480    3.9422   -2.4040 H         1 <0>         0.1370
     54 H14         6.5768    0.8667   -2.7986 H         1 <0>         0.0905
     55 H15         7.7023    1.9289   -3.8019 H         1 <0>         0.1104
     56 H16         9.0207    2.5051   -1.7129 H         1 <0>         0.1095
     57 H17         7.8952    1.4430   -0.7096 H         1 <0>         0.0983
     58 H18         5.1301    4.7423    2.3481 H         1 <0>         0.1485
     59 H19         3.8619    5.7867    4.2060 H         1 <0>         0.1689
     60 H20        -0.4678    3.7289    1.9898 H         1 <0>         0.4110
     61 H21        -0.3442    4.4632    4.7141 H         1 <0>         0.0687
     62 H22        -0.5502    5.9411    3.7436 H         1 <0>         0.0733
     63 H23        -2.5700    4.9655    2.6867 H         1 <0>         0.0923
     64 H24        -2.3641    3.4877    3.6572 H         1 <0>         0.0875
     65 H25        -3.8203    3.6713    5.9108 H         1 <0>         0.0846
     66 H26        -2.2780    4.3192    6.5541 H         1 <0>         0.0842
     67 H27        -4.9838    5.2905    7.0698 H         1 <0>         0.0845
     68 H28        -3.4415    5.9384    7.7131 H         1 <0>         0.0845
     69 H29        -4.4928    7.6208    6.0423 H         1 <0>         0.4313
@<TRIPOS>BOND
     1    1    6 ar
     2    1    2 ar
     3    1   42 1
     4    2    3 ar
     5    2   43 1
     6    3    4 ar
     7    3   18 1
     8    4    5 ar
     9    4   44 1
    10    5    6 ar
    11    5    7 1
    12    6   45 1
    13    7    8 am
    14    7   46 1
    15    8    9 2
    16    8   10 1
    17   10   11 1
    18   10   47 1
    19   10   48 1
    20   11   16 ar
    21   11   12 ar
    22   12   13 ar
    23   12   49 1
    24   13   14 ar
    25   13   50 1
    26   14   15 ar
    27   14   17 1
    28   15   16 ar
    29   15   51 1
    30   16   52 1
    31   18   19 2
    32   18   23 1
    33   19   20 1
    34   19   27 1
    35   20   22 2
    36   21   23 1
    37   22   24 1
    38   22   23 1
    39   24   26 1
    40   24   25 1
    41   24   53 1
    42   25   26 1
    43   25   54 1
    44   25   55 1
    45   26   56 1
    46   26   57 1
    47   27   32 ar
    48   27   28 ar
    49   28   29 ar
    50   28   58 1
    51   29   30 ar
    52   29   59 1
    53   30   31 ar
    54   31   32 ar
    55   31   33 1
    56   33   34 1
    57   33   60 1
    58   34   35 1
    59   34   61 1
    60   34   62 1
    61   35   36 1
    62   35   63 1
    63   35   64 1
    64   36   40 am
    65   36   37 1
    66   37   38 1
    67   37   65 1
    68   37   66 1
    69   38   39 1
    70   38   67 1
    71   38   68 1
    72   39   40 am
    73   39   69 1
    74   40   41 2
@<TRIPOS>MOLECULE
CHEMBL569882
   64    68     0     0     0
SMALL
USER_CHARGES

@<TRIPOS>ATOM
      1 C1          0.8179    1.5690   -0.8223 C.3       1 <0>        -0.1420
      2 C2          0.9277    0.0716   -0.9515 C.ar      1 <0>         0.0059
      3 C3         -0.2201   -0.7096   -0.8948 C.ar      1 <0>        -0.0925
      4 C4         -0.1570   -2.0674   -1.0086 C.ar      1 <0>        -0.0647
      5 C5          1.0816   -2.6978   -1.1863 C.ar      1 <0>        -0.1273
      6 C6          2.2617   -1.9164   -1.2463 C.ar      1 <0>         0.0413
      7 C7          2.1716   -0.5118   -1.1313 C.ar      1 <0>        -0.0297
      8 C8          3.3908    0.3261   -1.1972 C.ar      1 <0>        -0.1060
      9 C9          4.1307    0.3877   -2.3901 C.ar      1 <0>        -0.0585
     10 C10         5.2529    1.1491   -2.4777 C.ar      1 <0>        -0.1108
     11 C11         5.6868    1.8880   -1.3655 C.ar      1 <0>         0.2270
     12 C12         4.9469    1.8331   -0.1553 C.ar      1 <0>        -0.2227
     13 C13         3.7898    1.0475   -0.0842 C.ar      1 <0>        -0.0192
     14 C14         5.4048    2.5847    0.9439 C.ar      1 <0>         0.2490
     15 N1          6.4978    3.3044    0.8008 N.ar      1 <0>        -0.5527
     16 C15         7.1675    3.3326   -0.3497 C.ar      1 <0>         0.5785
     17 N2          6.7865    2.6499   -1.4120 N.ar      1 <0>        -0.5758
     18 N3          8.3089    4.1093   -0.4344 N.pl3     1 <0>        -0.6924
     19 C16         8.7586    4.8795    0.7278 C.3       1 <0>         0.0989
     20 C17         3.4902   -2.5749   -1.4257 C.ar      1 <0>        -0.1134
     21 C18         3.4993   -3.9326   -1.5344 C.ar      1 <0>         0.0816
     22 N4          2.3848   -4.6485   -1.4764 N.ar      1 <0>        -0.5055
     23 C19         1.1955   -4.1008   -1.3094 C.ar      1 <0>         0.5051
     24 N5          0.0641   -4.8979   -1.2552 N.pl3     1 <0>        -0.6117
     25 C20         0.1891   -6.2851   -1.2513 C.2       1 <0>         0.2044
     26 C21         0.2137   -7.0886   -0.1521 C.2       1 <0>        -0.1999
     27 C22         0.3513   -8.4086   -0.5893 C.2       1 <0>         0.0989
     28 N6          0.4078   -8.4080   -1.8964 N.2       1 <0>        -0.2317
     29 N7          0.3027   -7.0847   -2.3433 N.pl3     1 <0>        -0.3716
     30 C23         0.3159   -6.6417   -3.7397 C.3       1 <0>         0.0860
     31 C24         0.4230   -9.6268    0.2951 C.3       1 <0>         0.0077
     32 C25        -0.9717   -9.9465    0.8367 C.3       1 <0>        -0.1413
     33 C26         0.9401  -10.8164   -0.5163 C.3       1 <0>        -0.1422
     34 C27         1.3734   -9.3541    1.4626 C.3       1 <0>        -0.1414
     35 H1          0.6815    2.0099   -1.8098 H         1 <0>         0.0937
     36 H2         -0.0362    1.8177   -0.1923 H         1 <0>         0.0855
     37 H3          1.7288    1.9626   -0.3713 H         1 <0>         0.0859
     38 H4         -1.1795   -0.2330   -0.7577 H         1 <0>         0.1536
     39 H5         -1.0612   -2.6563   -0.9614 H         1 <0>         0.1431
     40 H6          3.8030   -0.1784   -3.2495 H         1 <0>         0.1322
     41 H7          5.8107    1.1854   -3.4018 H         1 <0>         0.1434
     42 H8          3.2167    1.0017    0.8300 H         1 <0>         0.1383
     43 H9          4.8713    2.5713    1.8828 H         1 <0>         0.1809
     44 H10         8.8115    4.1440   -1.2632 H         1 <0>         0.4196
     45 H11         9.6672    5.4249    0.4728 H         1 <0>         0.0821
     46 H12         7.9807    5.5854    1.0190 H         1 <0>         0.0640
     47 H13         8.9624    4.2013    1.5564 H         1 <0>         0.0638
     48 H14         4.4115   -2.0137   -1.4768 H         1 <0>         0.1792
     49 H15         4.4421   -4.4410   -1.6723 H         1 <0>         0.2012
     50 H16        -0.8153   -4.4900   -1.2199 H         1 <0>         0.4481
     51 H17         0.1404   -6.7634    0.8752 H         1 <0>         0.1650
     52 H18         1.3419   -6.4396   -4.0471 H         1 <0>         0.0796
     53 H19        -0.1059   -7.4225   -4.3726 H         1 <0>         0.1091
     54 H20        -0.2785   -5.7334   -3.8383 H         1 <0>         0.0886
     55 H21        -1.6488  -10.1408    0.0049 H         1 <0>         0.0599
     56 H22        -0.9199  -10.8276    1.4764 H         1 <0>         0.0730
     57 H23        -1.3401   -9.0990    1.4148 H         1 <0>         0.0602
     58 H24         1.9337  -10.5886   -0.9022 H         1 <0>         0.0580
     59 H25         0.9919  -11.6974    0.1233 H         1 <0>         0.0677
     60 H26         0.2630  -11.0106   -1.3481 H         1 <0>         0.0639
     61 H27         1.0050   -8.5066    2.0407 H         1 <0>         0.0600
     62 H28         1.4252  -10.2351    2.1023 H         1 <0>         0.0734
     63 H29         2.3670   -9.1263    1.0768 H         1 <0>         0.0575
     64 H30         2.4459   -5.6129   -1.5599 H         1 <0>         0.4381
@<TRIPOS>BOND
     1    1    2 1
     2    1   35 1
     3    1   36 1
     4    1   37 1
     5    2    7 ar
     6    2    3 ar
     7    3    4 ar
     8    3   38 1
     9    4    5 ar
    10    4   39 1
    11    5   23 ar
    12    5    6 ar
    13    6    7 ar
    14    6   20 ar
    15    7    8 1
    16    8   13 ar
    17    8    9 ar
    18    9   10 ar
    19    9   40 1
    20   10   11 ar
    21   10   41 1
    22   11   17 ar
    23   11   12 ar
    24   12   13 ar
    25   12   14 ar
    26   13   42 1
    27   14   15 ar
    28   14   43 1
    29   15   16 ar
    30   16   17 ar
    31   16   18 1
    32   18   19 1
    33   18   44 1
    34   19   45 1
    35   19   46 1
    36   19   47 1
    37   20   21 ar
    38   20   48 1
    39   21   22 ar
    40   21   49 1
    41   22   23 ar
    42   22   64 1
    43   23   24 1
    44   24   25 1
    45   24   50 1
    46   25   29 1
    47   25   26 2
    48   26   27 1
    49   26   51 1
    50   27   28 2
    51   27   31 1
    52   28   29 1
    53   29   30 1
    54   30   52 1
    55   30   53 1
    56   30   54 1
    57   31   32 1
    58   31   33 1
    59   31   34 1
    60   32   55 1
    61   32   56 1
    62   32   57 1
    63   33   58 1
    64   33   59 1
    65   33   60 1
    66   34   61 1
    67   34   62 1
    68   34   63 1
@<TRIPOS>MOLECULE
CHEMBL569882__1
   63    67     0     0     0
SMALL
USER_CHARGES

@<TRIPOS>ATOM
      1 C1         -0.0184    1.5028    0.0103 C.3       1 <0>        -0.1274
      2 C2          0.0021   -0.0041    0.0020 C.ar      1 <0>        -0.0377
      3 C3          0.0057   -0.6852   -1.2092 C.ar      1 <0>        -0.1211
      4 C4          0.0244   -2.0484   -1.2532 C.ar      1 <0>        -0.0794
      5 C5          0.0405   -2.7866   -0.0624 C.ar      1 <0>        -0.1345
      6 C6          0.0371   -2.1082    1.1811 C.ar      1 <0>         0.0309
      7 C7          0.0229   -0.6963    1.2022 C.ar      1 <0>        -0.0507
      8 C8          0.0252    0.0349    2.4900 C.ar      1 <0>        -0.0667
      9 C9          1.1426   -0.0496    3.3375 C.ar      1 <0>        -0.0505
     10 C10         1.1709    0.6116    4.5245 C.ar      1 <0>        -0.1182
     11 C11         0.0724    1.3926    4.9178 C.ar      1 <0>         0.2169
     12 C12        -1.0618    1.4850    4.0691 C.ar      1 <0>        -0.2136
     13 C13        -1.0719    0.8013    2.8471 C.ar      1 <0>        -0.0383
     14 C14        -2.1489    2.2757    4.4885 C.ar      1 <0>         0.2430
     15 N1         -2.0654    2.8938    5.6479 N.ar      1 <0>        -0.5581
     16 C15        -0.9854    2.7848    6.4191 C.ar      1 <0>         0.5688
     17 N2          0.0621    2.0591    6.0786 N.ar      1 <0>        -0.5736
     18 N3         -0.9609    3.4598    7.6261 N.pl3     1 <0>        -0.7005
     19 C16        -2.1086    4.2743    8.0332 C.3       1 <0>         0.1038
     20 C17         0.0540   -2.8737    2.3595 C.ar      1 <0>        -0.2047
     21 C18         0.0730   -4.2321    2.2614 C.ar      1 <0>         0.1308
     22 N4          0.0763   -4.8508    1.0888 N.ar      1 <0>        -0.5283
     23 C19         0.0607   -4.1995   -0.0591 C.ar      1 <0>         0.4331
     24 N5          0.0641   -4.8979   -1.2552 N.pl3     1 <0>        -0.6274
     25 C20         0.0840   -6.2906   -1.2484 C.2       1 <0>         0.3099
     26 C21         0.0955   -7.0907   -0.1465 C.2       1 <0>        -0.2685
     27 C22         0.1139   -8.4185   -0.5814 C.2       1 <0>         0.0983
     28 N6          0.1137   -8.4257   -1.8897 N.2       1 <0>        -0.2873
     29 N7          0.0896   -7.0994   -2.3395 N.pl3     1 <0>        -0.4000
     30 C23         0.0758   -6.6624   -3.7378 C.3       1 <0>         0.1015
     31 C24         0.1316   -9.6362    0.3063 C.3       1 <0>         0.0138
     32 C25        -1.2585   -9.8480    0.9093 C.3       1 <0>        -0.1361
     33 C26         0.5218  -10.8637   -0.5194 C.3       1 <0>        -0.1367
     34 C27         1.1496   -9.4331    1.4304 C.3       1 <0>        -0.1366
     35 H1          1.0042    1.8801    0.0026 H         1 <0>         0.0773
     36 H2         -0.5455    1.8639   -0.8728 H         1 <0>         0.0719
     37 H3         -0.5286    1.8543    0.9071 H         1 <0>         0.0752
     38 H4         -0.0070   -0.1250   -2.1325 H         1 <0>         0.1309
     39 H5          0.0265   -2.5583   -2.2052 H         1 <0>         0.1223
     40 H6          1.9910   -0.6488    3.0417 H         1 <0>         0.1327
     41 H7          2.0373    0.5360    5.1648 H         1 <0>         0.1395
     42 H8         -1.9276    0.8679    2.1916 H         1 <0>         0.1355
     43 H9         -3.0309    2.3732    3.8729 H         1 <0>         0.1779
     44 H10        -0.1839    3.3940    8.2029 H         1 <0>         0.4167
     45 H11        -1.9074    4.7256    9.0047 H         1 <0>         0.0774
     46 H12        -2.2769    5.0592    7.2958 H         1 <0>         0.0602
     47 H13        -2.9953    3.6441    8.1019 H         1 <0>         0.0604
     48 H14         0.0524   -2.3929    3.3266 H         1 <0>         0.1374
     49 H15         0.0860   -4.8227    3.1656 H         1 <0>         0.1581
     50 H16         0.0526   -4.4171   -2.0976 H         1 <0>         0.4159
     51 H17         0.0914   -6.7581    0.8810 H         1 <0>         0.1849
     52 H18         1.0999   -6.5394   -4.0901 H         1 <0>         0.0725
     53 H19        -0.4308   -7.4107   -4.3473 H         1 <0>         0.0935
     54 H20        -0.4521   -5.7120   -3.8162 H         1 <0>         0.0756
     55 H21        -1.9837   -9.9927    0.1085 H         1 <0>         0.0545
     56 H22        -1.2457  -10.7287    1.5514 H         1 <0>         0.0625
     57 H23        -1.5365   -8.9735    1.4976 H         1 <0>         0.0604
     58 H24         1.5122  -10.7128   -0.9490 H         1 <0>         0.0553
     59 H25         0.5346  -11.7444    0.1227 H         1 <0>         0.0576
     60 H26        -0.2034  -11.0084   -1.3202 H         1 <0>         0.0596
     61 H27         0.8716   -8.5586    2.0187 H         1 <0>         0.0628
     62 H28         1.1624  -10.3138    2.0725 H         1 <0>         0.0614
     63 H29         2.1399   -9.2822    1.0008 H         1 <0>         0.0552
@<TRIPOS>BOND
     1    1    2 1
     2    1   35 1
     3    1   36 1
     4    1   37 1
     5    2    7 ar
     6    2    3 ar
     7    3    4 ar
     8    3   38 1
     9    4    5 ar
    10    4   39 1
    11    5   23 ar
    12    5    6 ar
    13    6    7 ar
    14    6   20 ar
    15    7    8 1
    16    8   13 ar
    17    8    9 ar
    18    9   10 ar
    19    9   40 1
    20   10   11 ar
    21   10   41 1
    22   11   17 ar
    23   11   12 ar
    24   12   13 ar
    25   12   14 ar
    26   13   42 1
    27   14   15 ar
    28   14   43 1
    29   15   16 ar
    30   16   17 ar
    31   16   18 1
    32   18   19 1
    33   18   44 1
    34   19   45 1
    35   19   46 1
    36   19   47 1
    37   20   21 ar
    38   20   48 1
    39   21   22 ar
    40   21   49 1
    41   22   23 ar
    42   23   24 1
    43   24   25 1
    44   24   50 1
    45   25   29 1
    46   25   26 2
    47   26   27 1
    48   26   51 1
    49   27   28 2
    50   27   31 1
    51   28   29 1
    52   29   30 1
    53   30   52 1
    54   30   53 1
    55   30   54 1
    56   31   32 1
    57   31   33 1
    58   31   34 1
    59   32   55 1
    60   32   56 1
    61   32   57 1
    62   33   58 1
    63   33   59 1
    64   33   60 1
    65   34   61 1
    66   34   62 1
    67   34   63 1
@<TRIPOS>MOLECULE
CHEMBL602123
   45    48     0     0     0
SMALL
USER_CHARGES

@<TRIPOS>ATOM
      1 C1          0.0146    1.3576   -0.4165 C.ar      1 <0>        -0.0797
      2 C2          1.1901    2.0763   -0.3381 C.ar      1 <0>        -0.0995
      3 C3          2.3177    1.5058    0.2545 C.ar      1 <0>        -0.1039
      4 C4          2.2505    0.2092    0.7657 C.ar      1 <0>        -0.0590
      5 C5          1.0661   -0.5028    0.6816 C.ar      1 <0>         0.1025
      6 C6         -0.0505    0.0730    0.0903 C.ar      1 <0>        -0.1582
      7 O1          0.9963   -1.7661    1.1782 O.3       1 <0>        -0.3067
      8 C7         -0.2568   -2.4422    1.0576 C.3       1 <0>         0.6049
      9 F1         -0.6002   -2.5502   -0.2943 F         1 <0>        -0.1630
     10 F2         -0.1524   -3.7208    1.6158 F         1 <0>        -0.1261
     11 F3         -1.2446   -1.7176    1.7332 F         1 <0>        -0.1630
     12 C8          3.5788    2.2724    0.3400 C.2       1 <0>         0.5703
     13 O2          4.5596    1.7735    0.8566 O.2       1 <0>        -0.4974
     14 N1          3.6411    3.5245   -0.1549 N.am      1 <0>        -0.6614
     15 C9          4.8100    4.2808   -0.0015 C.ar      1 <0>         0.1511
     16 C10         6.0495    3.6566   -0.0282 C.ar      1 <0>        -0.0802
     17 C11         7.2054    4.4062    0.1232 C.ar      1 <0>         0.0931
     18 C12         7.1229    5.7813    0.3021 C.ar      1 <0>         0.0791
     19 C13         5.8859    6.4042    0.3292 C.ar      1 <0>         0.0700
     20 C14         4.7298    5.6574    0.1719 C.ar      1 <0>         0.0785
     21 F4          3.5241    6.2665    0.1929 F         1 <0>        -0.1081
     22 F5          5.8072    7.7415    0.5042 F         1 <0>        -0.1020
     23 F6          8.2499    6.5116    0.4501 F         1 <0>        -0.1018
     24 O3          8.4200    3.7957    0.0972 O.3       1 <0>        -0.2407
     25 C15         8.9674    3.4129    1.2812 C.ar      1 <0>         0.1317
     26 C16         8.3399    3.7353    2.4743 C.ar      1 <0>        -0.1805
     27 C17         8.8955    3.3467    3.6805 C.ar      1 <0>        -0.0648
     28 C18        10.0792    2.6352    3.7062 C.ar      1 <0>        -0.1282
     29 C19        10.7162    2.3069    2.5180 C.ar      1 <0>         0.1279
     30 C20        10.1563    2.6914    1.2997 C.ar      1 <0>         0.0730
     31 N2         11.0053    2.2197    0.2988 N.am      1 <0>        -0.6337
     32 H1         10.8786    2.3375   -0.6556 H         1 <0>         0.4396
     33 C21        12.0309    1.5728    0.8841 C.2       1 <0>         0.6854
     34 O4         12.9520    1.0399    0.2938 O.2       1 <0>        -0.5500
     35 N3         11.8895    1.6169    2.2224 N.am      1 <0>        -0.6388
     36 H2         12.4953    1.2241    2.8702 H         1 <0>         0.4396
     37 H3         -0.8586    1.8017   -0.8713 H         1 <0>         0.1463
     38 H4          1.2375    3.0794   -0.7353 H         1 <0>         0.1368
     39 H5          3.1198   -0.2377    1.2250 H         1 <0>         0.1569
     40 H6         -0.9733   -0.4845    0.0264 H         1 <0>         0.1423
     41 H7          2.8765    3.9019   -0.6173 H         1 <0>         0.4216
     42 H8          6.1132    2.5873   -0.1666 H         1 <0>         0.1795
     43 H9          7.4145    4.2920    2.4625 H         1 <0>         0.1346
     44 H10         8.4014    3.6012    4.6065 H         1 <0>         0.1426
     45 H11        10.5088    2.3350    4.6505 H         1 <0>         0.1395
@<TRIPOS>BOND
     1    1    6 ar
     2    1    2 ar
     3    1   37 1
     4    2    3 ar
     5    2   38 1
     6    3    4 ar
     7    3   12 1
     8    4    5 ar
     9    4   39 1
    10    5    6 ar
    11    5    7 1
    12    6   40 1
    13    7    8 1
    14    8    9 1
    15    8   10 1
    16    8   11 1
    17   12   13 2
    18   12   14 am
    19   14   15 1
    20   14   41 1
    21   15   20 ar
    22   15   16 ar
    23   16   17 ar
    24   16   42 1
    25   17   18 ar
    26   17   24 1
    27   18   19 ar
    28   18   23 1
    29   19   20 ar
    30   19   22 1
    31   20   21 1
    32   24   25 1
    33   25   30 ar
    34   25   26 ar
    35   26   27 ar
    36   26   43 1
    37   27   28 ar
    38   27   44 1
    39   28   29 ar
    40   28   45 1
    41   29   35 1
    42   29   30 ar
    43   30   31 1
    44   31   32 1
    45   31   33 am
    46   33   34 2
    47   33   35 am
    48   35   36 1
@<TRIPOS>MOLECULE
CHEMBL477772
   55    58     0     0     0
SMALL
USER_CHARGES

@<TRIPOS>ATOM
      1 C1          4.8550    0.0644   -0.1564 C.3       1 <0>        -0.1869
      2 C2          4.1130   -1.2471   -0.1373 C.ar      1 <0>         0.0344
      3 C3          3.0199   -1.4335   -0.9639 C.ar      1 <0>        -0.1029
      4 C4          2.3377   -2.6340   -0.9488 C.ar      1 <0>        -0.1086
      5 C5          2.7505   -3.6551   -0.1021 C.ar      1 <0>         0.0793
      6 C6          3.8485   -3.4646    0.7266 C.ar      1 <0>        -0.0079
      7 C7          4.5299   -2.2633    0.7025 C.ar      1 <0>        -0.6503
      8 S1          5.9278   -2.0233    1.7479 S.o2      1 <0>         2.7023
      9 O1          5.7339   -0.7789    2.4061 O.2       1 <0>        -0.9435
     10 O2          6.1174   -3.2393    2.4581 O.2       1 <0>        -0.9530
     11 N1          7.2479   -1.8383    0.7653 N.pl3     1 <0>        -1.2455
     12 N2          2.0618   -4.8717   -0.0840 N.pl3     1 <0>        -0.6161
     13 C8          1.6506   -5.4525   -1.2725 C.ar      1 <0>         0.6554
     14 N3          2.0291   -4.9109   -2.4210 N.ar      1 <0>        -0.5769
     15 C9          1.6556   -5.4374   -3.5780 C.ar      1 <0>         0.2082
     16 C10         0.8608   -6.5673   -3.5812 C.ar      1 <0>        -0.2605
     17 C11         0.4781   -7.1160   -2.3554 C.ar      1 <0>         0.5154
     18 N4          0.8935   -6.5384   -1.2323 N.ar      1 <0>        -0.5510
     19 N5         -0.3194   -8.2490   -2.3102 N.pl3     1 <0>        -0.5011
     20 C12        -0.9543   -8.7470   -3.5329 C.3       1 <0>         0.0690
     21 C13        -0.5176   -8.9162   -1.0982 C.ar      1 <0>         0.1506
     22 C14        -1.6153   -8.5676   -0.2972 C.ar      1 <0>        -0.1610
     23 C15        -1.8550   -9.1812    0.8869 C.ar      1 <0>        -0.0082
     24 C16        -0.9846  -10.1987    1.3349 C.ar      1 <0>        -0.2079
     25 C17        -0.9297  -11.0085    2.4539 C.2       1 <0>         0.1217
     26 N6          0.1424  -11.8034    2.3353 N.pl3     1 <0>        -0.3103
     27 N7          0.8101  -11.5292    1.1362 N.2       1 <0>        -0.2974
     28 C18         0.1676  -10.5678    0.4977 C.ar      1 <0>         0.1038
     29 C19         0.3572   -9.8931   -0.7266 C.ar      1 <0>        -0.0735
     30 C20         0.5548  -12.8107    3.3159 C.3       1 <0>         0.0805
     31 C21        -1.9031  -10.9985    3.6043 C.3       1 <0>        -0.1011
     32 H1          5.6496    0.0215   -0.9013 H         1 <0>         0.0977
     33 H2          4.1642    0.8691   -0.4081 H         1 <0>         0.0977
     34 H3          5.2880    0.2513    0.8263 H         1 <0>         0.1151
     35 H4          2.6992   -0.6391   -1.6216 H         1 <0>         0.1546
     36 H5          1.4840   -2.7788   -1.5942 H         1 <0>         0.1384
     37 H6          4.1718   -4.2563    1.3862 H         1 <0>         0.1631
     38 H7          7.1442   -1.8748   -0.1984 H         1 <0>         0.4166
     39 H8          8.1250   -1.6933    1.1536 H         1 <0>         0.4287
     40 H9          1.8719   -5.3090    0.7607 H         1 <0>         0.4510
     41 H10         1.9690   -4.9879   -4.5086 H         1 <0>         0.2180
     42 H11         0.5423   -7.0159   -4.5105 H         1 <0>         0.1895
     43 H12        -0.2892   -9.4570   -4.0245 H         1 <0>         0.0864
     44 H13        -1.8916   -9.2426   -3.2797 H         1 <0>         0.1025
     45 H14        -1.1546   -7.9121   -4.2044 H         1 <0>         0.0922
     46 H15        -2.2859   -7.7904   -0.6326 H         1 <0>         0.1248
     47 H16        -2.7070   -8.8933    1.4849 H         1 <0>         0.1331
     48 H17         1.1920  -10.1463   -1.3633 H         1 <0>         0.1303
     49 H18         0.0824  -13.7638    3.0783 H         1 <0>         0.0924
     50 H19         1.6384  -12.9247    3.2859 H         1 <0>         0.1019
     51 H20         0.2504  -12.4929    4.3131 H         1 <0>         0.0998
     52 H21        -2.7129  -11.6991    3.4011 H         1 <0>         0.0934
     53 H22        -1.3881  -11.2936    4.5186 H         1 <0>         0.0813
     54 H23        -2.3122   -9.9955    3.7254 H         1 <0>         0.0937
     55 H24         2.5872   -4.1176   -2.4147 H         1 <0>         0.4405
@<TRIPOS>BOND
     1    1    2 1
     2    1   32 1
     3    1   33 1
     4    1   34 1
     5    2    7 ar
     6    2    3 ar
     7    3    4 ar
     8    3   35 1
     9    4    5 ar
    10    4   36 1
    11    5    6 ar
    12    5   12 1
    13    6    7 ar
    14    6   37 1
    15    7    8 1
    16    8    9 2
    17    8   10 2
    18    8   11 1
    19   11   38 1
    20   11   39 1
    21   12   13 1
    22   12   40 1
    23   13   18 ar
    24   13   14 ar
    25   14   15 ar
    26   14   55 1
    27   15   16 ar
    28   15   41 1
    29   16   17 ar
    30   16   42 1
    31   17   18 ar
    32   17   19 1
    33   19   20 1
    34   19   21 1
    35   20   43 1
    36   20   44 1
    37   20   45 1
    38   21   29 ar
    39   21   22 ar
    40   22   23 ar
    41   22   46 1
    42   23   24 ar
    43   23   47 1
    44   24   28 ar
    45   24   25 2
    46   25   26 1
    47   25   31 1
    48   26   27 1
    49   26   30 1
    50   27   28 2
    51   28   29 ar
    52   29   48 1
    53   30   49 1
    54   30   50 1
    55   30   51 1
    56   31   52 1
    57   31   53 1
    58   31   54 1
@<TRIPOS>MOLECULE
CHEMBL523261
   39    43     0     0     0
SMALL
USER_CHARGES

@<TRIPOS>ATOM
      1 C1         -0.0178    1.4608    0.0101 C.3       1 <0>         0.0981
      2 N1          0.0021   -0.0041    0.0020 N.pl3     1 <0>        -0.3645
      3 C2          0.0077   -0.7867   -1.0966 C.2       1 <0>         0.0769
      4 C3          0.0272   -2.0856   -0.6840 C.2       1 <0>        -0.1865
      5 C4          0.0336   -2.0818    0.7341 C.2       1 <0>         0.1225
      6 N2          0.0245   -0.8286    1.1332 N.2       1 <0>        -0.2735
      7 C5          0.0539   -3.2773    1.6105 C.ar      1 <0>         0.0304
      8 C6         -0.6152   -4.4488    1.2430 C.ar      1 <0>        -0.1422
      9 C7         -0.5702   -5.5383    2.0879 C.ar      1 <0>         0.1012
     10 N3          0.0916   -5.4842    3.2281 N.ar      1 <0>        -0.4802
     11 C8          0.7360   -4.3988    3.6121 C.ar      1 <0>         0.0994
     12 C9          0.7474   -3.2662    2.8246 C.ar      1 <0>        -0.1472
     13 C10         0.0388   -3.2835   -1.5580 C.ar      1 <0>         0.0112
     14 C11         0.9740   -4.2959   -1.3441 C.ar      1 <0>        -0.1051
     15 C12         0.9849   -5.4082   -2.1547 C.ar      1 <0>        -0.0785
     16 C13         0.0592   -5.5277   -3.1951 C.ar      1 <0>        -0.0225
     17 C14        -0.8733   -4.5143   -3.4055 C.ar      1 <0>        -0.0691
     18 C15        -0.8890   -3.4032   -2.5921 C.ar      1 <0>        -0.0962
     19 C16        -1.7304   -4.9130   -4.5823 C.3       1 <0>         0.0020
     20 C17        -1.2142   -6.2537   -5.0425 C.2       1 <0>        -0.2575
     21 C18        -0.1432   -6.6025   -4.1982 C.2       1 <0>         0.0952
     22 N4          0.3140   -7.7743   -4.5947 N.2       1 <0>        -0.2665
     23 N5         -0.4503   -8.1926   -5.6911 N.pl3     1 <0>        -0.4690
     24 H1         -0.3337   -9.0200   -6.1837 H         1 <0>         0.4454
     25 C19        -1.3779   -7.2438   -5.9437 C.2       1 <0>         0.0832
     26 H2          1.0048    1.8381    0.0023 H         1 <0>         0.0799
     27 H3         -0.5450    1.8219   -0.8730 H         1 <0>         0.0926
     28 H4         -0.5280    1.8123    0.9069 H         1 <0>         0.0933
     29 H5         -0.0019   -0.4449   -2.1211 H         1 <0>         0.1829
     30 H6         -1.1595   -4.4998    0.3115 H         1 <0>         0.1389
     31 H7         -1.0839   -6.4475    1.8127 H         1 <0>         0.1590
     32 H8          1.2650   -4.3984    4.5536 H         1 <0>         0.1592
     33 H9          1.2807   -2.3827    3.1430 H         1 <0>         0.1379
     34 H10         1.6909   -4.2068   -0.5414 H         1 <0>         0.1250
     35 H11         1.7106   -6.1903   -1.9867 H         1 <0>         0.1272
     36 H12        -1.6171   -2.6229   -2.7577 H         1 <0>         0.1285
     37 H13        -2.7728   -4.9979   -4.2753 H         1 <0>         0.0937
     38 H14        -1.6333   -4.1792   -5.3824 H         1 <0>         0.0932
     39 H15        -2.1194   -7.2728   -6.7283 H         1 <0>         0.1817
@<TRIPOS>BOND
     1    1    2 1
     2    1   26 1
     3    1   27 1
     4    1   28 1
     5    2    6 1
     6    2    3 1
     7    3    4 2
     8    3   29 1
     9    4    5 1
    10    4   13 1
    11    5    6 2
    12    5    7 1
    13    7   12 ar
    14    7    8 ar
    15    8    9 ar
    16    8   30 1
    17    9   10 ar
    18    9   31 1
    19   10   11 ar
    20   11   12 ar
    21   11   32 1
    22   12   33 1
    23   13   18 ar
    24   13   14 ar
    25   14   15 ar
    26   14   34 1
    27   15   16 ar
    28   15   35 1
    29   16   21 1
    30   16   17 ar
    31   17   18 ar
    32   17   19 1
    33   18   36 1
    34   19   20 1
    35   19   37 1
    36   19   38 1
    37   20   25 2
    38   20   21 1
    39   21   22 2
    40   22   23 1
    41   23   24 1
    42   23   25 1
    43   25   39 1
@<TRIPOS>MOLECULE
CHEMBL523261__1
   39    43     0     0     0
SMALL
USER_CHARGES

@<TRIPOS>ATOM
      1 C1         -0.0178    1.4608    0.0101 C.3       1 <0>         0.0975
      2 N1          0.0021   -0.0041    0.0020 N.pl3     1 <0>        -0.3636
      3 C2          0.0077   -0.7866   -1.0966 C.2       1 <0>         0.0783
      4 C3          0.0272   -2.0857   -0.6839 C.2       1 <0>        -0.1889
      5 C4          0.0336   -2.0818    0.7343 C.2       1 <0>         0.1225
      6 N2          0.0245   -0.8285    1.1332 N.2       1 <0>        -0.2728
      7 C5          0.0538   -3.2772    1.6108 C.ar      1 <0>         0.0304
      8 C6         -0.6154   -4.4487    1.2434 C.ar      1 <0>        -0.1430
      9 C7         -0.5709   -5.5379    2.0887 C.ar      1 <0>         0.1008
     10 N3          0.0910   -5.4838    3.2288 N.ar      1 <0>        -0.4800
     11 C8          0.7354   -4.3984    3.6127 C.ar      1 <0>         0.1000
     12 C9          0.7473   -3.2660    2.8249 C.ar      1 <0>        -0.1469
     13 C10         0.0395   -3.2834   -1.5577 C.ar      1 <0>         0.0130
     14 C11         0.9751   -4.2958   -1.3431 C.ar      1 <0>        -0.1032
     15 C12         0.9884   -5.4087   -2.1522 C.ar      1 <0>        -0.0875
     16 C13         0.0631   -5.5288   -3.1946 C.ar      1 <0>        -0.0417
     17 C14        -0.8706   -4.5127   -3.4045 C.ar      1 <0>        -0.0667
     18 C15        -0.8884   -3.4032   -2.5931 C.ar      1 <0>        -0.0933
     19 C16        -1.7168   -4.9276   -4.5834 C.3       1 <0>        -0.0072
     20 C17        -1.1799   -6.2683   -5.0226 C.2       1 <0>        -0.2428
     21 C18        -0.1439   -6.5954   -4.1973 C.2       1 <0>         0.1015
     22 N4          0.3297   -7.8091   -4.6084 N.pl3     1 <0>        -0.4608
     23 N5         -0.4398   -8.2185   -5.7045 N.2       1 <0>        -0.2739
     24 H1          1.0670   -8.2993   -4.2123 H         1 <0>         0.4390
     25 C19        -1.3387   -7.2986   -5.9482 C.2       1 <0>         0.0783
     26 H2          1.0048    1.8381    0.0023 H         1 <0>         0.0804
     27 H3         -0.5450    1.8219   -0.8730 H         1 <0>         0.0931
     28 H4         -0.5280    1.8123    0.9069 H         1 <0>         0.0938
     29 H5         -0.0016   -0.4448   -2.1210 H         1 <0>         0.1832
     30 H6         -1.1594   -4.4998    0.3118 H         1 <0>         0.1384
     31 H7         -1.0849   -6.4470    1.8137 H         1 <0>         0.1588
     32 H8          1.2642   -4.3978    4.5544 H         1 <0>         0.1596
     33 H9          1.2811   -2.3827    3.1430 H         1 <0>         0.1383
     34 H10         1.6912   -4.2057   -0.5396 H         1 <0>         0.1252
     35 H11         1.7143   -6.1901   -1.9827 H         1 <0>         0.1234
     36 H12        -1.6169   -2.6234   -2.7592 H         1 <0>         0.1302
     37 H13        -2.7605   -5.0204   -4.2831 H         1 <0>         0.0992
     38 H14        -1.6211   -4.2003   -5.3896 H         1 <0>         0.0988
     39 H15        -2.0787   -7.3322   -6.7341 H         1 <0>         0.1885
@<TRIPOS>BOND
     1    1    2 1
     2    1   26 1
     3    1   27 1
     4    1   28 1
     5    2    6 1
     6    2    3 1
     7    3    4 2
     8    3   29 1
     9    4    5 1
    10    4   13 1
    11    5    6 2
    12    5    7 1
    13    7   12 ar
    14    7    8 ar
    15    8    9 ar
    16    8   30 1
    17    9   10 ar
    18    9   31 1
    19   10   11 ar
    20   11   12 ar
    21   11   32 1
    22   12   33 1
    23   13   18 ar
    24   13   14 ar
    25   14   15 ar
    26   14   34 1
    27   15   16 ar
    28   15   35 1
    29   16   17 ar
    30   16   21 1
    31   17   18 ar
    32   17   19 1
    33   18   36 1
    34   19   37 1
    35   19   38 1
    36   19   20 1
    37   20   25 1
    38   20   21 2
    39   21   22 1
    40   22   23 1
    41   22   24 1
    42   23   25 2
    43   25   39 1
@<TRIPOS>MOLECULE
CHEMBL1213976
   51    53     0     0     0
SMALL
USER_CHARGES

@<TRIPOS>ATOM
      1 C1         -0.3922    1.3271    0.8902 C.ar      1 <0>        -0.0758
      2 C2          0.6958    2.1775    0.9018 C.ar      1 <0>        -0.1309
      3 C3          1.9392    1.7192    0.4918 C.ar      1 <0>         0.1234
      4 C4          2.0906    0.4065    0.0698 C.ar      1 <0>        -0.1925
      5 C5          1.0036   -0.4451    0.0581 C.ar      1 <0>        -0.1009
      6 C6         -0.2412    0.0130    0.4684 C.ar      1 <0>         0.1171
      7 N1         -1.3447   -0.8507    0.4568 N.am      1 <0>        -0.6753
      8 C7         -2.5743   -0.3694    0.1868 C.2       1 <0>         0.7054
      9 O1         -2.7147    0.7954   -0.1327 O.2       1 <0>        -0.5515
     10 N2         -3.6484   -1.1793    0.2708 N.am      1 <0>        -0.6811
     11 C8         -4.9112   -0.7085   -0.1078 C.ar      1 <0>         0.1722
     12 C9         -5.0300    0.2076   -1.1448 C.ar      1 <0>        -0.0763
     13 C10        -6.2768    0.6704   -1.5162 C.ar      1 <0>        -0.0867
     14 C11        -7.4076    0.2225   -0.8557 C.ar      1 <0>        -0.0096
     15 C12        -7.2920   -0.6898    0.1781 C.ar      1 <0>        -0.1560
     16 C13        -6.0476   -1.1610    0.5491 C.ar      1 <0>        -0.0905
     17 C14        -8.5253   -1.1750    0.8954 C.3       1 <0>         0.5112
     18 F1         -8.1573   -2.0842    1.8929 F         1 <0>        -0.1746
     19 F2         -9.1852   -0.0869    1.4766 F         1 <0>        -0.1673
     20 F3         -9.3785   -1.8044   -0.0175 F         1 <0>        -0.1680
     21 Cl1        -8.9736    0.8067   -1.3247 Cl        1 <0>        -0.0406
     22 O2          3.0099    2.5573    0.5030 O.3       1 <0>        -0.2964
     23 C15         4.2599    2.0187    0.0678 C.3       1 <0>         0.0660
     24 C16         5.3380    3.1013    0.1497 C.3       1 <0>         0.0540
     25 N3          5.5387    3.4871    1.5529 N.3       1 <0>        -0.5305
     26 C17         6.1938    4.7997    1.6497 C.3       1 <0>         0.0185
     27 C18         6.3292    5.1889    3.1242 C.3       1 <0>         0.0627
     28 O3          7.0548    4.1693    3.8165 O.3       1 <0>        -0.3853
     29 C19         6.4447    2.8779    3.7433 C.3       1 <0>         0.0635
     30 C20         6.3104    2.4653    2.2751 C.3       1 <0>         0.0143
     31 H1         -1.3593    1.6829    1.2133 H         1 <0>         0.1422
     32 H2          0.5784    3.1998    1.2299 H         1 <0>         0.1354
     33 H3          3.0588    0.0505   -0.2500 H         1 <0>         0.1306
     34 H4          1.1216   -1.4670   -0.2708 H         1 <0>         0.1280
     35 H5         -1.2236   -1.7949    0.6430 H         1 <0>         0.4093
     36 H6         -3.5464   -2.0883    0.5936 H         1 <0>         0.4137
     37 H7         -4.1479    0.5580   -1.6600 H         1 <0>         0.1565
     38 H8         -6.3697    1.3828   -2.3226 H         1 <0>         0.1519
     39 H9         -5.9583   -1.8767    1.3529 H         1 <0>         0.1518
     40 H10         4.5370    1.1808    0.7076 H         1 <0>         0.0623
     41 H11         4.1683    1.6744   -0.9623 H         1 <0>         0.0672
     42 H12         6.2722    2.7153   -0.2582 H         1 <0>         0.0614
     43 H13         5.0228    3.9721   -0.4251 H         1 <0>         0.0888
     44 H14         7.1829    4.7473    1.1948 H         1 <0>         0.0435
     45 H15         5.5925    5.5458    1.1301 H         1 <0>         0.0890
     46 H16         6.8653    6.1346    3.2033 H         1 <0>         0.0994
     47 H17         5.3380    5.2937    3.5655 H         1 <0>         0.0618
     48 H18         7.0643    2.1522    4.2701 H         1 <0>         0.0986
     49 H19         5.4569    2.9154    4.2026 H         1 <0>         0.0611
     50 H20         5.7943    1.5073    2.2119 H         1 <0>         0.0848
     51 H21         7.3014    2.3756    1.8301 H         1 <0>         0.0443
@<TRIPOS>BOND
     1    1    6 ar
     2    1    2 ar
     3    1   31 1
     4    2    3 ar
     5    2   32 1
     6    3    4 ar
     7    3   22 1
     8    4    5 ar
     9    4   33 1
    10    5    6 ar
    11    5   34 1
    12    6    7 1
    13    7    8 am
    14    7   35 1
    15    8    9 2
    16    8   10 am
    17   10   11 1
    18   10   36 1
    19   11   16 ar
    20   11   12 ar
    21   12   13 ar
    22   12   37 1
    23   13   14 ar
    24   13   38 1
    25   14   15 ar
    26   14   21 1
    27   15   16 ar
    28   15   17 1
    29   16   39 1
    30   17   18 1
    31   17   19 1
    32   17   20 1
    33   22   23 1
    34   23   24 1
    35   23   40 1
    36   23   41 1
    37   24   25 1
    38   24   42 1
    39   24   43 1
    40   25   30 1
    41   25   26 1
    42   26   27 1
    43   26   44 1
    44   26   45 1
    45   27   28 1
    46   27   46 1
    47   27   47 1
    48   28   29 1
    49   29   30 1
    50   29   48 1
    51   29   49 1
    52   30   50 1
    53   30   51 1
@<TRIPOS>MOLECULE
CHEMBL1213976__1
   52    54     0     0     0
SMALL
USER_CHARGES

@<TRIPOS>ATOM
      1 C1          0.1853    1.0068    0.0221 C.ar      1 <0>        -0.0783
      2 C2          1.2048    1.9283    0.1575 C.ar      1 <0>        -0.1174
      3 C3          2.5192    1.5474   -0.0697 C.ar      1 <0>         0.0964
      4 C4          2.8103    0.2406   -0.4330 C.ar      1 <0>        -0.1799
      5 C5          1.7917   -0.6820   -0.5682 C.ar      1 <0>        -0.1045
      6 C6          0.4760   -0.3014   -0.3410 C.ar      1 <0>         0.1466
      7 N1         -0.5581   -1.2372   -0.4780 N.am      1 <0>        -0.6800
      8 C7         -1.7695   -0.8432   -0.9184 C.2       1 <0>         0.7076
      9 O1         -1.9398    0.3038   -1.2844 O.2       1 <0>        -0.5508
     10 N2         -2.7920   -1.7206   -0.9531 N.am      1 <0>        -0.6770
     11 C8         -4.0191   -1.3436   -1.5115 C.ar      1 <0>         0.1649
     12 C9         -4.0540   -0.4576   -2.5804 C.ar      1 <0>        -0.0762
     13 C10        -5.2658   -0.0873   -3.1294 C.ar      1 <0>        -0.0871
     14 C11        -6.4448   -0.5980   -2.6150 C.ar      1 <0>        -0.0066
     15 C12        -6.4128   -1.4805   -1.5499 C.ar      1 <0>        -0.1546
     16 C13        -5.2029   -1.8593   -1.0014 C.ar      1 <0>        -0.0872
     17 C14        -7.6986   -2.0342   -0.9920 C.3       1 <0>         0.5106
     18 F1         -7.4122   -2.8973    0.0712 F         1 <0>        -0.1742
     19 F2         -8.5002   -0.9823   -0.5359 F         1 <0>        -0.1664
     20 F3         -8.3769   -2.7371   -1.9935 F         1 <0>        -0.1662
     21 Cl1        -7.9666   -0.1301   -3.3071 Cl        1 <0>        -0.0350
     22 O2          3.5226    2.4554    0.0633 O.3       1 <0>        -0.3282
     23 C15         4.8520    1.9943   -0.1859 C.3       1 <0>         0.0255
     24 C16         5.8373    3.1479    0.0117 C.3       1 <0>        -0.0004
     25 N3          5.8251    3.5667    1.4197 N.4       1 <0>        -0.3870
     26 C17         6.6555    4.7682    1.5808 C.3       1 <0>        -0.0436
     27 C18         6.6409    5.2026    3.0485 C.3       1 <0>         0.0353
     28 O3          7.1114    4.1256    3.8637 O.3       1 <0>        -0.3560
     29 C19         6.3482    2.9240    3.7236 C.3       1 <0>         0.0369
     30 C20         6.3623    2.4854    2.2571 C.3       1 <0>        -0.0498
     31 H1         -0.8376    1.3025    0.2031 H         1 <0>         0.1497
     32 H2          0.9788    2.9459    0.4399 H         1 <0>         0.1378
     33 H3          3.8337   -0.0551   -0.6104 H         1 <0>         0.1321
     34 H4          2.0185   -1.6992   -0.8514 H         1 <0>         0.1357
     35 H5         -0.4021   -2.1684   -0.2560 H         1 <0>         0.4134
     36 H6         -2.6776   -2.6132   -0.5911 H         1 <0>         0.4153
     37 H7         -3.1343   -0.0583   -2.9817 H         1 <0>         0.1548
     38 H8         -5.2935    0.6017   -3.9606 H         1 <0>         0.1529
     39 H9         -5.1782   -2.5519   -0.1731 H         1 <0>         0.1527
     40 H10         5.0928    1.1881    0.5070 H         1 <0>         0.0858
     41 H11         4.9232    1.6269   -1.2096 H         1 <0>         0.1110
     42 H12         6.8404    2.8198   -0.2611 H         1 <0>         0.1505
     43 H13         5.5454    3.9872   -0.6195 H         1 <0>         0.1450
     44 H14         7.6787    4.5464    1.2774 H         1 <0>         0.1402
     45 H15         6.2578    5.5710    0.9600 H         1 <0>         0.1443
     46 H16         7.2906    6.0681    3.1784 H         1 <0>         0.1433
     47 H17         5.6237    5.4629    3.3410 H         1 <0>         0.0821
     48 H18         6.7860    2.1405    4.3421 H         1 <0>         0.1425
     49 H19         5.3210    3.1064    4.0392 H         1 <0>         0.0819
     50 H20         5.7469    1.5936    2.1384 H         1 <0>         0.1401
     51 H21         7.3855    2.2644    1.9535 H         1 <0>         0.1412
     52 H22         4.8782    3.7717    1.7015 H         1 <0>         0.4303
@<TRIPOS>BOND
     1    1    6 ar
     2    1    2 ar
     3    1   31 1
     4    2    3 ar
     5    2   32 1
     6    3    4 ar
     7    3   22 1
     8    4    5 ar
     9    4   33 1
    10    5    6 ar
    11    5   34 1
    12    6    7 1
    13    7    8 am
    14    7   35 1
    15    8    9 2
    16    8   10 am
    17   10   11 1
    18   10   36 1
    19   11   16 ar
    20   11   12 ar
    21   12   13 ar
    22   12   37 1
    23   13   14 ar
    24   13   38 1
    25   14   15 ar
    26   14   21 1
    27   15   16 ar
    28   15   17 1
    29   16   39 1
    30   17   18 1
    31   17   19 1
    32   17   20 1
    33   22   23 1
    34   23   24 1
    35   23   40 1
    36   23   41 1
    37   24   25 1
    38   24   42 1
    39   24   43 1
    40   25   30 1
    41   25   26 1
    42   25   52 1
    43   26   27 1
    44   26   44 1
    45   26   45 1
    46   27   28 1
    47   27   46 1
    48   27   47 1
    49   28   29 1
    50   29   30 1
    51   29   48 1
    52   29   49 1
    53   30   50 1
    54   30   51 1
@<TRIPOS>MOLECULE
CHEMBL570421
   65    70     0     0     0
SMALL
USER_CHARGES

@<TRIPOS>ATOM
      1 C1          7.1733    3.2312   -2.3247 C.3       1 <0>        -0.1518
      2 C2          5.6900    2.8706   -2.4281 C.3       1 <0>         0.0796
      3 O1          5.5510    1.6105   -3.0876 O.3       1 <0>        -0.3644
      4 C3          4.2992    1.1457   -3.2599 C.2       1 <0>         0.6694
      5 O2          3.3508    1.7922   -2.8613 O.2       1 <0>        -0.5688
      6 N1          4.0982   -0.0368   -3.8746 N.am      1 <0>        -0.6022
      7 C4          5.1123   -0.9702   -4.4218 C.3       1 <0>         0.1367
      8 C5          4.5106   -1.4409   -5.7660 C.3       1 <0>        -0.1944
      9 C6          2.9865   -1.2705   -5.5954 C.3       1 <0>        -0.2223
     10 C7          2.8108   -0.7159   -4.1584 C.3       1 <0>         0.1688
     11 C8          2.7045   -1.9119   -3.1989 C.3       1 <0>        -0.1466
     12 C9          3.8270   -2.9039   -3.5172 C.3       1 <0>        -0.0514
     13 C10         5.1698   -2.1843   -3.4811 C.3       1 <0>        -0.1262
     14 C11         3.6025   -3.4927   -4.8862 C.2       1 <0>         0.2181
     15 C12         4.6507   -3.9347   -5.6237 C.2       1 <0>        -0.2181
     16 C13         4.4180   -4.4791   -6.8945 C.2       1 <0>         0.1770
     17 N2          3.1948   -4.5597   -7.3650 N.2       1 <0>        -0.4509
     18 C14         2.1534   -4.1269   -6.6463 C.2       1 <0>         0.2704
     19 N3          2.3401   -3.5931   -5.3974 N.pl3     1 <0>        -0.2859
     20 N4          1.0879   -3.2368   -4.8847 N.2       1 <0>        -0.2918
     21 C15         0.1561   -3.5378   -5.7693 C.2       1 <0>         0.1716
     22 C16         0.7783   -4.0952   -6.9034 C.2       1 <0>        -0.1749
     23 C17         0.1026   -4.5724   -8.1307 C.ar      1 <0>         0.0138
     24 C18        -0.5037   -3.6604   -8.9960 C.ar      1 <0>        -0.1042
     25 C19        -1.1323   -4.1085  -10.1396 C.ar      1 <0>        -0.1031
     26 C20        -1.1643   -5.4597  -10.4318 C.ar      1 <0>        -0.1061
     27 C21        -0.5639   -6.3740   -9.5769 C.ar      1 <0>         0.1047
     28 C22         0.0746   -5.9341   -8.4294 C.ar      1 <0>        -0.1190
     29 O3         -0.5983   -7.7009   -9.8688 O.3       1 <0>        -0.4957
     30 C23        -1.8537   -5.9415  -11.6823 C.3       1 <0>        -0.1149
     31 C24        -1.3003   -3.3154   -5.6025 C.ar      1 <0>         0.0216
     32 C25        -2.2268   -4.2672   -6.0389 C.ar      1 <0>        -0.1357
     33 C26        -3.5728   -4.0201   -5.8641 C.ar      1 <0>         0.1037
     34 N5         -3.9883   -2.9047   -5.2949 N.ar      1 <0>        -0.4745
     35 C27        -3.1475   -1.9814   -4.8693 C.ar      1 <0>         0.1013
     36 C28        -1.7845   -2.1508   -4.9991 C.ar      1 <0>        -0.1411
     37 H1          7.6951    2.4629   -1.7541 H         1 <0>         0.0666
     38 H2          7.6022    3.2952   -3.3247 H         1 <0>         0.0662
     39 H3          7.2794    4.1924   -1.8216 H         1 <0>         0.0831
     40 H4          5.2611    2.8066   -1.4281 H         1 <0>         0.0681
     41 H5          5.1683    3.6389   -2.9987 H         1 <0>         0.0674
     42 H6          6.0868   -0.4966   -4.5402 H         1 <0>         0.1085
     43 H7          4.8732   -0.8175   -6.5833 H         1 <0>         0.0705
     44 H8          4.7577   -2.4870   -5.9469 H         1 <0>         0.1266
     45 H9          2.5991   -0.5631   -6.3287 H         1 <0>         0.0669
     46 H10         2.4836   -2.2327   -5.6924 H         1 <0>         0.1415
     47 H11         1.9610   -0.0381   -4.0782 H         1 <0>         0.1030
     48 H12         2.8046   -1.5649   -2.1704 H         1 <0>         0.0795
     49 H13         1.7384   -2.3996   -3.3290 H         1 <0>         0.1246
     50 H14         3.8266   -3.7024   -2.7752 H         1 <0>         0.1135
     51 H15         5.9540   -2.8655   -3.8116 H         1 <0>         0.0890
     52 H16         5.3790   -1.8494   -2.4651 H         1 <0>         0.0895
     53 H17         5.6564   -3.8675   -5.2358 H         1 <0>         0.1792
     54 H18         5.2475   -4.8331   -7.4885 H         1 <0>         0.1879
     55 H19        -0.4810   -2.6045   -8.7704 H         1 <0>         0.1207
     56 H20        -1.6010   -3.4018  -10.8084 H         1 <0>         0.1274
     57 H21         0.5459   -6.6440   -7.7658 H         1 <0>         0.1249
     58 H22         0.1492   -8.0061  -10.4009 H         1 <0>         0.3894
     59 H23        -1.1389   -5.9659  -12.5048 H         1 <0>         0.0692
     60 H24        -2.2502   -6.9431  -11.5157 H         1 <0>         0.0736
     61 H25        -2.6706   -5.2640  -11.9307 H         1 <0>         0.0675
     62 H26        -1.8937   -5.1821   -6.5063 H         1 <0>         0.1397
     63 H27        -4.2961   -4.7493   -6.1980 H         1 <0>         0.1618
     64 H28        -3.5313   -1.0828   -4.4092 H         1 <0>         0.1617
     65 H29        -1.1017   -1.3931   -4.6439 H         1 <0>         0.1398
@<TRIPOS>BOND
     1    1    2 1
     2    1   37 1
     3    1   38 1
     4    1   39 1
     5    2    3 1
     6    2   40 1
     7    2   41 1
     8    3    4 1
     9    4    5 2
    10    4    6 am
    11    6   10 1
    12    6    7 1
    13    7   13 1
    14    7    8 1
    15    7   42 1
    16    8    9 1
    17    8   43 1
    18    8   44 1
    19    9   10 1
    20    9   45 1
    21    9   46 1
    22   10   11 1
    23   10   47 1
    24   11   12 1
    25   11   48 1
    26   11   49 1
    27   12   13 1
    28   12   14 1
    29   12   50 1
    30   13   51 1
    31   13   52 1
    32   14   19 1
    33   14   15 2
    34   15   16 1
    35   15   53 1
    36   16   17 2
    37   16   54 1
    38   17   18 1
    39   18   22 2
    40   18   19 1
    41   19   20 1
    42   20   21 2
    43   21   22 1
    44   21   31 1
    45   22   23 1
    46   23   28 ar
    47   23   24 ar
    48   24   25 ar
    49   24   55 1
    50   25   26 ar
    51   25   56 1
    52   26   27 ar
    53   26   30 1
    54   27   28 ar
    55   27   29 1
    56   28   57 1
    57   29   58 1
    58   30   59 1
    59   30   60 1
    60   30   61 1
    61   31   36 ar
    62   31   32 ar
    63   32   33 ar
    64   32   62 1
    65   33   34 ar
    66   33   63 1
    67   34   35 ar
    68   35   36 ar
    69   35   64 1
    70   36   65 1
@<TRIPOS>MOLECULE
CHEMBL385956
   51    54     0     0     0
SMALL
USER_CHARGES

@<TRIPOS>ATOM
      1 C1         -1.2586    1.0187    0.3884 C.3       1 <0>        -0.1199
      2 C2         -0.4677   -0.2569    0.2517 C.ar      1 <0>        -0.0813
      3 C3         -0.4148   -0.9074   -0.9670 C.ar      1 <0>        -0.1087
      4 C4          0.3072   -2.0757   -1.1000 C.ar      1 <0>        -0.1007
      5 C5          0.9876   -2.6050   -0.0015 C.ar      1 <0>        -0.1305
      6 C6          0.9343   -1.9489    1.2280 C.ar      1 <0>        -0.0465
      7 C7          0.2106   -0.7723    1.3499 C.ar      1 <0>         0.1476
      8 N1          0.1585   -0.1076    2.5787 N.pl3     1 <0>        -0.6419
      9 C8          0.0690   -0.8341    3.7568 C.ar      1 <0>         0.4323
     10 C9         -0.0602   -0.1626    4.9820 C.ar      1 <0>        -0.1849
     11 C10        -0.1492   -0.9136    6.1553 C.ar      1 <0>        -0.0013
     12 C11        -0.1058   -2.2950    6.0581 C.ar      1 <0>        -0.2305
     13 C12         0.0230   -2.8855    4.8150 C.ar      1 <0>         0.1772
     14 N2          0.1004   -2.1567    3.7180 N.ar      1 <0>        -0.5341
     15 C13        -0.1009    1.3171    5.0295 C.ar      1 <0>         0.2434
     16 C14        -0.0821    1.9900    6.2556 C.ar      1 <0>        -0.2239
     17 C15        -0.1219    3.3718    6.2451 C.ar      1 <0>         0.1626
     18 N3         -0.1761    4.0082    5.0844 N.ar      1 <0>        -0.5255
     19 C16        -0.1926    3.3454    3.9452 C.ar      1 <0>         0.3133
     20 N4         -0.1506    2.0299    3.9052 N.ar      1 <0>        -0.5454
     21 C17         1.7614   -3.8568   -0.1412 C.2       1 <0>         0.5638
     22 O1          2.3530   -4.3158    0.8164 O.2       1 <0>        -0.5090
     23 N5          1.8110   -4.4892   -1.3304 N.am      1 <0>        -0.6712
     24 C18         2.6120   -5.6250   -1.4854 C.ar      1 <0>         0.1467
     25 C19         3.2688   -5.8547   -2.6877 C.ar      1 <0>        -0.1126
     26 C20         4.0593   -6.9770   -2.8374 C.ar      1 <0>        -0.0998
     27 C21         4.1972   -7.8720   -1.7920 C.ar      1 <0>        -0.0879
     28 C22         3.5444   -7.6466   -0.5942 C.ar      1 <0>        -0.1645
     29 C23         2.7571   -6.5227   -0.4359 C.ar      1 <0>        -0.0718
     30 C24         3.6971   -8.6248    0.5419 C.3       1 <0>         0.5093
     31 F1          4.5402   -9.6694    0.1478 F         1 <0>        -0.1766
     32 F2          4.2500   -7.9715    1.6486 F         1 <0>        -0.1727
     33 F3          2.4429   -9.1416    0.8841 F         1 <0>        -0.1757
     34 H1         -0.6167    1.8701    0.1624 H         1 <0>         0.0749
     35 H2         -2.0981    1.0019   -0.3067 H         1 <0>         0.0732
     36 H3         -1.6330    1.1065    1.4083 H         1 <0>         0.0700
     37 H4         -0.9406   -0.4999   -1.8178 H         1 <0>         0.1338
     38 H5          0.3457   -2.5810   -2.0537 H         1 <0>         0.1252
     39 H6          1.4585   -2.3535    2.0812 H         1 <0>         0.1522
     40 H7          0.1851    0.8616    2.6074 H         1 <0>         0.4344
     41 H8         -0.2490   -0.4296    7.1156 H         1 <0>         0.1415
     42 H9         -0.1718   -2.9055    6.9465 H         1 <0>         0.1424
     43 H10         0.0567   -3.9623    4.7401 H         1 <0>         0.1642
     44 H11        -0.0379    1.4441    7.1864 H         1 <0>         0.1518
     45 H12        -0.1093    3.9259    7.1721 H         1 <0>         0.1736
     46 H13        -0.2375    3.8972    3.0179 H         1 <0>         0.2005
     47 H14         1.2911   -4.1565   -2.0787 H         1 <0>         0.4139
     48 H15         3.1610   -5.1565   -3.5046 H         1 <0>         0.1368
     49 H16         4.5703   -7.1561   -3.7718 H         1 <0>         0.1410
     50 H17         4.8158   -8.7492   -1.9118 H         1 <0>         0.1408
     51 H18         2.2510   -6.3449    0.5015 H         1 <0>         0.1505
@<TRIPOS>BOND
     1    1    2 1
     2    1   34 1
     3    1   35 1
     4    1   36 1
     5    2    7 ar
     6    2    3 ar
     7    3    4 ar
     8    3   37 1
     9    4    5 ar
    10    4   38 1
    11    5    6 ar
    12    5   21 1
    13    6    7 ar
    14    6   39 1
    15    7    8 1
    16    8    9 1
    17    8   40 1
    18    9   14 ar
    19    9   10 ar
    20   10   11 ar
    21   10   15 1
    22   11   12 ar
    23   11   41 1
    24   12   13 ar
    25   12   42 1
    26   13   14 ar
    27   13   43 1
    28   15   20 ar
    29   15   16 ar
    30   16   17 ar
    31   16   44 1
    32   17   18 ar
    33   17   45 1
    34   18   19 ar
    35   19   20 ar
    36   19   46 1
    37   21   22 2
    38   21   23 am
    39   23   24 1
    40   23   47 1
    41   24   29 ar
    42   24   25 ar
    43   25   26 ar
    44   25   48 1
    45   26   27 ar
    46   26   49 1
    47   27   28 ar
    48   27   50 1
    49   28   29 ar
    50   28   30 1
    51   29   51 1
    52   30   31 1
    53   30   32 1
    54   30   33 1
@<TRIPOS>MOLECULE
CHEMBL1213974
   67    70     0     0     0
SMALL
USER_CHARGES

@<TRIPOS>ATOM
      1 C1         -0.3808    0.0563   -1.4580 C.3       1 <0>        -0.1173
      2 C2         -0.7110   -1.2799   -0.8445 C.ar      1 <0>        -0.0880
      3 C3         -1.4208   -2.2170   -1.5726 C.ar      1 <0>        -0.0944
      4 C4         -1.7249   -3.4426   -1.0130 C.ar      1 <0>        -0.1041
      5 C5         -1.3169   -3.7334    0.2818 C.ar      1 <0>         0.1524
      6 C6         -0.6040   -2.7906    1.0103 C.ar      1 <0>        -0.1479
      7 C7         -0.2987   -1.5686    0.4435 C.ar      1 <0>        -0.0928
      8 N1         -1.6244   -4.9760    0.8526 N.pl3     1 <0>        -0.3424
      9 C8         -0.8422   -5.6765    1.7183 C.2       1 <0>         0.3210
     10 C9         -1.5050   -6.8237    2.0303 C.2       1 <0>        -0.2561
     11 C10        -2.7190   -6.8199    1.3374 C.2       1 <0>         0.1107
     12 N2         -2.7944   -5.7159    0.6387 N.2       1 <0>        -0.2730
     13 C11        -3.7669   -7.9015    1.3909 C.3       1 <0>         0.0125
     14 C12        -4.5197   -7.8170    2.7202 C.3       1 <0>        -0.1378
     15 C13        -4.7514   -7.7155    0.2346 C.3       1 <0>        -0.1378
     16 C14        -3.0936   -9.2703    1.2722 C.3       1 <0>        -0.1386
     17 N3          0.4092   -5.2901    2.1976 N.am      1 <0>        -0.6572
     18 C15         1.0773   -6.0861    3.0558 C.2       1 <0>         0.7150
     19 O1          0.5890   -7.1411    3.4122 O.2       1 <0>        -0.5355
     20 N4          2.2866   -5.7127    3.5189 N.am      1 <0>        -0.6771
     21 C16         2.9287   -6.4801    4.4998 C.ar      1 <0>         0.1689
     22 C17         3.6905   -5.8581    5.4799 C.ar      1 <0>        -0.1267
     23 C18         4.3231   -6.6148    6.4462 C.ar      1 <0>        -0.0951
     24 C19         4.1980   -7.9966    6.4376 C.ar      1 <0>         0.0569
     25 C20         3.4370   -8.6187    5.4585 C.ar      1 <0>        -0.1052
     26 C21         2.7989   -7.8625    4.4953 C.ar      1 <0>        -0.1006
     27 O2          4.8218   -8.7413    7.3888 O.3       1 <0>        -0.2437
     28 C22         5.9565   -9.3994    7.0402 C.ar      1 <0>         0.1596
     29 C23         6.5776  -10.2714    7.9306 C.ar      1 <0>        -0.1768
     30 C24         7.7327  -10.9255    7.5423 C.ar      1 <0>         0.1346
     31 N5          8.2501  -10.7346    6.3472 N.ar      1 <0>        -0.4816
     32 C25         7.6917   -9.9126    5.4662 C.ar      1 <0>         0.1123
     33 C26         6.5250   -9.2236    5.7811 C.ar      1 <0>        -0.1859
     34 C27         8.3137   -9.7323    4.1334 C.2       1 <0>         0.5699
     35 O3          7.8074   -8.9816    3.3232 O.2       1 <0>        -0.5284
     36 N6          9.4410  -10.4011    3.8199 N.am      1 <0>        -0.7139
     37 C28        10.0560  -10.2229    2.5022 C.3       1 <0>         0.0847
     38 H1          0.5773   -0.0075   -1.9737 H         1 <0>         0.0744
     39 H2         -1.1590    0.3315   -2.1700 H         1 <0>         0.0702
     40 H3         -0.3220    0.8115   -0.6742 H         1 <0>         0.0695
     41 H4         -1.7379   -1.9903   -2.5798 H         1 <0>         0.1343
     42 H5         -2.2799   -4.1738   -1.5820 H         1 <0>         0.1364
     43 H6         -0.2852   -3.0139    2.0177 H         1 <0>         0.1240
     44 H7          0.2594   -0.8363    1.0081 H         1 <0>         0.1343
     45 H8         -1.1548   -7.5996    2.6950 H         1 <0>         0.1801
     46 H9         -4.9994   -6.8419    2.8048 H         1 <0>         0.0563
     47 H10        -5.2777   -8.5994    2.7589 H         1 <0>         0.0657
     48 H11        -3.8183   -7.9496    3.5440 H         1 <0>         0.0614
     49 H12        -4.2151   -7.7757   -0.7125 H         1 <0>         0.0567
     50 H13        -5.5094   -8.4978    0.2733 H         1 <0>         0.0605
     51 H14        -5.2311   -6.7403    0.3191 H         1 <0>         0.0611
     52 H15        -2.3922   -9.4028    2.0960 H         1 <0>         0.0634
     53 H16        -3.8516  -10.0526    1.3109 H         1 <0>         0.0648
     54 H17        -2.5573   -9.3305    0.3252 H         1 <0>         0.0569
     55 H18         0.7987   -4.4485    1.9133 H         1 <0>         0.4099
     56 H19         2.7125   -4.9126    3.1733 H         1 <0>         0.4122
     57 H20         3.7885   -4.7825    5.4863 H         1 <0>         0.1382
     58 H21         4.9156   -6.1311    7.2087 H         1 <0>         0.1398
     59 H22         3.3402   -9.6943    5.4521 H         1 <0>         0.1365
     60 H23         2.2026   -8.3465    3.7360 H         1 <0>         0.1526
     61 H24         6.1621  -10.4349    8.9139 H         1 <0>         0.1522
     62 H25         8.2175  -11.6026    8.2299 H         1 <0>         0.1745
     63 H26         6.0696   -8.5591    5.0618 H         1 <0>         0.1536
     64 H27         9.8452  -11.0004    4.4667 H         1 <0>         0.4141
     65 H28        10.9520  -10.8397    2.4330 H         1 <0>         0.0802
     66 H29         9.3490  -10.5210    1.7280 H         1 <0>         0.0630
     67 H30        10.3245   -9.1754    2.3653 H         1 <0>         0.0628
@<TRIPOS>BOND
     1    1    2 1
     2    1   38 1
     3    1   39 1
     4    1   40 1
     5    2    7 ar
     6    2    3 ar
     7    3    4 ar
     8    3   41 1
     9    4    5 ar
    10    4   42 1
    11    5    6 ar
    12    5    8 1
    13    6    7 ar
    14    6   43 1
    15    7   44 1
    16    8   12 1
    17    8    9 1
    18    9   10 2
    19    9   17 1
    20   10   11 1
    21   10   45 1
    22   11   12 2
    23   11   13 1
    24   13   14 1
    25   13   15 1
    26   13   16 1
    27   14   46 1
    28   14   47 1
    29   14   48 1
    30   15   49 1
    31   15   50 1
    32   15   51 1
    33   16   52 1
    34   16   53 1
    35   16   54 1
    36   17   18 am
    37   17   55 1
    38   18   19 2
    39   18   20 am
    40   20   21 1
    41   20   56 1
    42   21   26 ar
    43   21   22 ar
    44   22   23 ar
    45   22   57 1
    46   23   24 ar
    47   23   58 1
    48   24   25 ar
    49   24   27 1
    50   25   26 ar
    51   25   59 1
    52   26   60 1
    53   27   28 1
    54   28   33 ar
    55   28   29 ar
    56   29   30 ar
    57   29   61 1
    58   30   31 ar
    59   30   62 1
    60   31   32 ar
    61   32   33 ar
    62   32   34 1
    63   33   63 1
    64   34   35 2
    65   34   36 am
    66   36   37 1
    67   36   64 1
    68   37   65 1
    69   37   66 1
    70   37   67 1
@<TRIPOS>MOLECULE
CHEMBL1213973
   72    76     0     0     0
SMALL
USER_CHARGES

@<TRIPOS>ATOM
      1 C1          0.2153    1.6427    0.0086 C.3       1 <0>        -0.1170
      2 C2          0.2063    0.1358   -0.0061 C.ar      1 <0>        -0.0889
      3 C3          0.2126   -0.5426   -1.2110 C.ar      1 <0>        -0.0947
      4 C4          0.2044   -1.9236   -1.2277 C.ar      1 <0>        -0.1047
      5 C5          0.1902   -2.6308   -0.0330 C.ar      1 <0>         0.1537
      6 C6          0.1843   -1.9469    1.1753 C.ar      1 <0>        -0.1477
      7 C7          0.1975   -0.5658    1.1855 C.ar      1 <0>        -0.0929
      8 N1          0.1814   -4.0323   -0.0466 N.pl3     1 <0>        -0.3434
      9 C8          0.7950   -4.8470    0.8544 C.2       1 <0>         0.3233
     10 C9          0.5413   -6.1314    0.4820 C.2       1 <0>        -0.2571
     11 C10        -0.2454   -6.0960   -0.6729 C.2       1 <0>         0.1107
     12 N2         -0.4657   -4.8447   -0.9865 N.2       1 <0>        -0.2748
     13 C11        -0.7578   -7.2962   -1.4265 C.3       1 <0>         0.0127
     14 C12        -1.9154   -7.9289   -0.6515 C.3       1 <0>        -0.1378
     15 C13        -1.2478   -6.8595   -2.8086 C.3       1 <0>        -0.1377
     16 C14         0.3693   -8.3186   -1.5846 C.3       1 <0>        -0.1384
     17 N3          1.5464   -4.4405    1.9567 N.am      1 <0>        -0.6591
     18 C15         2.1007   -5.3606    2.7707 C.2       1 <0>         0.7144
     19 O1          1.9457   -6.5451    2.5440 O.2       1 <0>        -0.5359
     20 N4          2.8268   -4.9678    3.8360 N.am      1 <0>        -0.6736
     21 C16         3.3312   -5.9201    4.7285 C.ar      1 <0>         0.1690
     22 C17         3.7597   -7.1555    4.2585 C.ar      1 <0>        -0.1264
     23 C18         4.2578   -8.0963    5.1389 C.ar      1 <0>        -0.0823
     24 C19         4.3312   -7.8127    6.4892 C.ar      1 <0>        -0.1220
     25 C20         3.9044   -6.5794    6.9656 C.ar      1 <0>         0.1768
     26 C21         3.4093   -5.6298    6.0827 C.ar      1 <0>        -0.1343
     27 N5          3.9789   -6.2930    8.3320 N.pl3     1 <0>        -0.6328
     28 C22         3.0089   -5.5038    8.9283 C.ar      1 <0>         0.5667
     29 N6          2.0576   -4.9706    8.1750 N.ar      1 <0>        -0.5554
     30 C23         1.1130   -4.2114    8.7068 C.ar      1 <0>         0.1948
     31 C24         1.1231   -3.9738   10.0701 C.ar      1 <0>        -0.2714
     32 C25         2.1383   -4.5493   10.8385 C.ar      1 <0>         0.2663
     33 N7          3.0528   -5.3062   10.2362 N.ar      1 <0>        -0.5595
     34 C26         2.1929   -4.3248   12.3035 C.ar      1 <0>        -0.1159
     35 C27         3.2673   -4.8078   13.0566 C.ar      1 <0>        -0.0276
     36 C28         3.2716   -4.5716   14.4203 C.ar      1 <0>        -0.1782
     37 C29         2.2227   -3.8719   14.9892 C.ar      1 <0>         0.1167
     38 N8          1.2224   -3.4284   14.2527 N.ar      1 <0>        -0.4846
     39 C30         1.1773   -3.6242   12.9508 C.ar      1 <0>         0.1330
     40 C31         4.8743   -8.8424    7.4462 C.3       1 <0>        -0.1148
     41 H1          1.2451    1.9998    0.0161 H         1 <0>         0.0740
     42 H2         -0.2929    2.0177   -0.8798 H         1 <0>         0.0700
     43 H3         -0.2999    2.0004    0.9001 H         1 <0>         0.0693
     44 H4          0.2237    0.0081   -2.1400 H         1 <0>         0.1339
     45 H5          0.2086   -2.4529   -2.1691 H         1 <0>         0.1361
     46 H6          0.1733   -2.4942    2.1063 H         1 <0>         0.1244
     47 H7          0.1970   -0.0332    2.1251 H         1 <0>         0.1339
     48 H8          0.8868   -7.0203    0.9888 H         1 <0>         0.1802
     49 H9         -2.7184   -7.2005   -0.5389 H         1 <0>         0.0561
     50 H10        -2.2860   -8.7970   -1.1966 H         1 <0>         0.0653
     51 H11        -1.5663   -8.2400    0.3331 H         1 <0>         0.0615
     52 H12        -0.4232   -6.4087   -3.3607 H         1 <0>         0.0565
     53 H13        -1.6185   -7.7275   -3.3537 H         1 <0>         0.0601
     54 H14        -2.0508   -6.1311   -2.6960 H         1 <0>         0.0609
     55 H15         0.7184   -8.6297   -0.6000 H         1 <0>         0.0638
     56 H16        -0.0013   -9.1867   -2.1297 H         1 <0>         0.0644
     57 H17         1.1940   -7.8678   -2.1367 H         1 <0>         0.0568
     58 H18         1.6700   -3.4956    2.1375 H         1 <0>         0.4086
     59 H19         2.9998   -4.0248    3.9840 H         1 <0>         0.4082
     60 H20         3.7030   -7.3805    3.2037 H         1 <0>         0.1418
     61 H21         4.5902   -9.0558    4.7710 H         1 <0>         0.1313
     62 H22         3.0810   -4.6686    6.4499 H         1 <0>         0.1467
     63 H23         4.7098   -6.6470    8.8626 H         1 <0>         0.4246
     64 H24         0.3428   -3.7816    8.0836 H         1 <0>         0.1732
     65 H25         0.3642   -3.3577   10.5293 H         1 <0>         0.1500
     66 H26         4.0732   -5.3516   12.5863 H         1 <0>         0.1466
     67 H27         4.0850   -4.9300   15.0338 H         1 <0>         0.1425
     68 H28         2.2227   -3.6861   16.0531 H         1 <0>         0.1620
     69 H29         0.3436   -3.2416   12.3806 H         1 <0>         0.1623
     70 H30         5.9520   -8.7129    7.5461 H         1 <0>         0.0710
     71 H31         4.4015   -8.7180    8.4204 H         1 <0>         0.0623
     72 H32         4.6622   -9.8410    7.0643 H         1 <0>         0.0724
@<TRIPOS>BOND
     1    1    2 1
     2    1   41 1
     3    1   42 1
     4    1   43 1
     5    2    7 ar
     6    2    3 ar
     7    3    4 ar
     8    3   44 1
     9    4    5 ar
    10    4   45 1
    11    5    6 ar
    12    5    8 1
    13    6    7 ar
    14    6   46 1
    15    7   47 1
    16    8   12 1
    17    8    9 1
    18    9   10 2
    19    9   17 1
    20   10   11 1
    21   10   48 1
    22   11   12 2
    23   11   13 1
    24   13   14 1
    25   13   15 1
    26   13   16 1
    27   14   49 1
    28   14   50 1
    29   14   51 1
    30   15   52 1
    31   15   53 1
    32   15   54 1
    33   16   55 1
    34   16   56 1
    35   16   57 1
    36   17   18 am
    37   17   58 1
    38   18   19 2
    39   18   20 am
    40   20   21 1
    41   20   59 1
    42   21   26 ar
    43   21   22 ar
    44   22   23 ar
    45   22   60 1
    46   23   24 ar
    47   23   61 1
    48   24   25 ar
    49   24   40 1
    50   25   26 ar
    51   25   27 1
    52   26   62 1
    53   27   28 1
    54   27   63 1
    55   28   33 ar
    56   28   29 ar
    57   29   30 ar
    58   30   31 ar
    59   30   64 1
    60   31   32 ar
    61   31   65 1
    62   32   33 ar
    63   32   34 1
    64   34   39 ar
    65   34   35 ar
    66   35   36 ar
    67   35   66 1
    68   36   37 ar
    69   36   67 1
    70   37   38 ar
    71   37   68 1
    72   38   39 ar
    73   39   69 1
    74   40   70 1
    75   40   71 1
    76   40   72 1
@<TRIPOS>MOLECULE
CHEMBL371958
   42    45     0     0     0
SMALL
USER_CHARGES

@<TRIPOS>ATOM
      1 C1         -0.1384    1.3871   -1.9996 C.3       1 <0>        -0.1742
      2 C2         -0.1294   -0.1124   -1.8497 C.2       1 <0>         0.5113
      3 O1          0.7284   -0.7715   -2.3980 O.2       1 <0>        -0.5239
      4 N1         -1.0747   -0.7209   -1.1064 N.am      1 <0>        -0.6765
      5 C3         -1.1267   -2.1182   -1.0478 C.ar      1 <0>         0.1395
      6 C4          0.0492   -2.8587   -1.0621 C.ar      1 <0>        -0.1013
      7 C5          0.0020   -4.2384   -1.0039 C.ar      1 <0>        -0.1062
      8 C6         -1.2135   -4.8894   -0.9316 C.ar      1 <0>        -0.0866
      9 C7         -2.3980   -4.1549   -0.9167 C.ar      1 <0>        -0.0378
     10 C8         -2.3511   -2.7638   -0.9696 C.ar      1 <0>        -0.1189
     11 C9         -3.7048   -4.8525   -0.8395 C.ar      1 <0>         0.1756
     12 C10        -4.8886   -4.1179   -0.8304 C.ar      1 <0>         0.0037
     13 N2         -6.0523   -4.7391   -0.7612 N.ar      1 <0>        -0.3963
     14 C11        -6.0986   -6.0570   -0.7009 C.ar      1 <0>         0.0038
     15 C12        -4.9191   -6.7992   -0.7100 C.ar      1 <0>         0.3521
     16 N3         -3.7486   -6.1808   -0.7844 N.ar      1 <0>        -0.4812
     17 N4         -4.9700   -8.1873   -0.6464 N.pl3     1 <0>        -0.6483
     18 C13        -3.7863   -8.9268   -0.5393 C.ar      1 <0>         0.1733
     19 C14        -2.7014   -8.4047    0.1527 C.ar      1 <0>        -0.1108
     20 C15        -1.5324   -9.1337    0.2592 C.ar      1 <0>        -0.0768
     21 C16        -1.4390  -10.3871   -0.3238 C.ar      1 <0>         0.0121
     22 C17        -2.5255  -10.9137   -1.0182 C.ar      1 <0>         0.0561
     23 C18        -3.6987  -10.1848   -1.1200 C.ar      1 <0>        -0.1341
     24 O2         -2.1839  -12.1474   -1.4923 O.3       1 <0>        -0.3084
     25 C19        -0.7462  -12.1982   -1.4324 C.3       1 <0>         0.2138
     26 O3         -0.4163  -11.2920   -0.3633 O.3       1 <0>        -0.3080
     27 H1          0.6953    1.6941   -2.6311 H         1 <0>         0.0977
     28 H2         -1.0762    1.7009   -2.4580 H         1 <0>         0.0930
     29 H3         -0.0406    1.8510   -1.0181 H         1 <0>         0.0928
     30 H4         -1.7191   -0.1905   -0.6121 H         1 <0>         0.4133
     31 H5          1.0025   -2.3543   -1.1193 H         1 <0>         0.1414
     32 H6          0.9187   -4.8094   -1.0153 H         1 <0>         0.1322
     33 H7         -1.2465   -5.9679   -0.8869 H         1 <0>         0.1370
     34 H8         -3.2659   -2.1901   -0.9538 H         1 <0>         0.1329
     35 H9         -4.8548   -3.0395   -0.8796 H         1 <0>         0.1693
     36 H10        -7.0521   -6.5609   -0.6441 H         1 <0>         0.1698
     37 H11        -5.8257   -8.6432   -0.6763 H         1 <0>         0.4250
     38 H12        -2.7713   -7.4278    0.6078 H         1 <0>         0.1485
     39 H13        -0.6898   -8.7256    0.7976 H         1 <0>         0.1393
     40 H14        -4.5436  -10.5929   -1.6549 H         1 <0>         0.1378
     41 H15        -0.4081  -13.2074   -1.1972 H         1 <0>         0.1327
     42 H16        -0.3114  -11.8568   -2.3718 H         1 <0>         0.0852
@<TRIPOS>BOND
     1    1    2 1
     2    1   27 1
     3    1   28 1
     4    1   29 1
     5    2    3 2
     6    2    4 am
     7    4    5 1
     8    4   30 1
     9    5   10 ar
    10    5    6 ar
    11    6    7 ar
    12    6   31 1
    13    7    8 ar
    14    7   32 1
    15    8    9 ar
    16    8   33 1
    17    9   10 ar
    18    9   11 1
    19   10   34 1
    20   11   16 ar
    21   11   12 ar
    22   12   13 ar
    23   12   35 1
    24   13   14 ar
    25   14   15 ar
    26   14   36 1
    27   15   16 ar
    28   15   17 1
    29   17   18 1
    30   17   37 1
    31   18   23 ar
    32   18   19 ar
    33   19   20 ar
    34   19   38 1
    35   20   21 ar
    36   20   39 1
    37   21   26 1
    38   21   22 ar
    39   22   23 ar
    40   22   24 1
    41   23   40 1
    42   24   25 1
    43   25   26 1
    44   25   41 1
    45   25   42 1
@<TRIPOS>MOLECULE
CHEMBL1080833
   66    72     0     0     0
SMALL
USER_CHARGES

@<TRIPOS>ATOM
      1 C1          1.8794   -1.0803   -3.3021 C.3       1 <0>        -0.0428
      2 N1          1.1912   -1.4794   -2.0672 N.4       1 <0>        -0.3956
      3 C2          2.0844   -2.3103   -1.2164 C.3       1 <0>         0.0174
      4 C3          2.0556   -3.7055   -1.8805 C.3       1 <0>        -0.1325
      5 C4          0.7158   -3.7553   -2.6434 C.3       1 <0>        -0.1331
      6 C5          0.0524   -2.3858   -2.3733 C.3       1 <0>         0.0174
      7 C6         -0.7847   -2.5136   -1.0882 C.3       1 <0>         0.1007
      8 N2          0.0875   -3.0404   -0.0266 N.pl3     1 <0>        -0.6349
      9 C7          1.4137   -2.4318    0.1633 C.3       1 <0>         0.0997
     10 C8         -0.3340   -4.0936    0.7825 C.ar      1 <0>         0.2250
     11 C9          0.5415   -4.6498    1.7099 C.ar      1 <0>        -0.1894
     12 C10         0.1284   -5.6910    2.5108 C.ar      1 <0>        -0.0292
     13 C11        -1.1722   -6.1888    2.3916 C.ar      1 <0>        -0.1128
     14 C12        -2.0492   -5.6274    1.4593 C.ar      1 <0>        -0.0192
     15 C13        -1.6312   -4.5829    0.6652 C.ar      1 <0>        -0.1868
     16 C14        -1.6182   -7.3047    3.2477 C.2       1 <0>         0.2393
     17 C15        -1.7216   -7.1442    4.6157 C.2       1 <0>        -0.2065
     18 C16        -2.1473   -8.2205    5.3964 C.2       1 <0>         0.1868
     19 N3         -2.4456   -9.3717    4.8359 N.2       1 <0>        -0.4557
     20 C17        -2.3516   -9.5459    3.5139 C.2       1 <0>         0.2835
     21 N4         -1.9441   -8.5221    2.6982 N.pl3     1 <0>        -0.2995
     22 N5         -1.9480   -8.9872    1.3789 N.2       1 <0>        -0.2900
     23 C18        -2.3449  -10.2453    1.3646 C.2       1 <0>         0.1714
     24 C19        -2.6048  -10.6483    2.6893 C.2       1 <0>        -0.1835
     25 C20        -3.0721  -11.9831    3.1258 C.ar      1 <0>         0.0233
     26 C21        -2.2282  -13.0896    3.0190 C.ar      1 <0>        -0.0988
     27 C22        -2.6664  -14.3327    3.4272 C.ar      1 <0>        -0.0920
     28 C23        -3.9412  -14.4863    3.9429 C.ar      1 <0>        -0.0610
     29 C24        -4.7877  -13.3902    4.0523 C.ar      1 <0>         0.1209
     30 C25        -4.3548  -12.1379    3.6506 C.ar      1 <0>        -0.1138
     31 O1         -6.0392  -13.5463    4.5591 O.3       1 <0>        -0.4859
     32 Cl1        -4.4846  -16.0538    4.4542 Cl        1 <0>        -0.0526
     33 C26        -2.4832  -11.0959    0.1581 C.ar      1 <0>         0.0221
     34 C27        -3.5663  -11.9682    0.0146 C.ar      1 <0>        -0.1374
     35 C28        -3.6565  -12.7414   -1.1245 C.ar      1 <0>         0.1073
     36 N6         -2.7386  -12.6653   -2.0691 N.ar      1 <0>        -0.4734
     37 C29        -1.7014  -11.8556   -1.9729 C.ar      1 <0>         0.1010
     38 C30        -1.5371  -11.0432   -0.8700 C.ar      1 <0>        -0.1434
     39 H1          1.1796   -0.5602   -3.9563 H         1 <0>         0.1235
     40 H2          2.7094   -0.4174   -3.0576 H         1 <0>         0.1236
     41 H3          2.2599   -1.9671   -3.8089 H         1 <0>         0.1213
     42 H4          3.0908   -1.8971   -1.1487 H         1 <0>         0.1608
     43 H5          2.8903   -3.8128   -2.5732 H         1 <0>         0.0986
     44 H6          2.0889   -4.4872   -1.1217 H         1 <0>         0.1102
     45 H7          0.8922   -3.8870   -3.7109 H         1 <0>         0.0987
     46 H8          0.0908   -4.5615   -2.2594 H         1 <0>         0.1103
     47 H9         -0.5348   -2.0377   -3.2230 H         1 <0>         0.1610
     48 H10        -1.1670   -1.5347   -0.7989 H         1 <0>         0.0903
     49 H11        -1.6153   -3.1990   -1.2565 H         1 <0>         0.1275
     50 H12         2.0194   -3.0638    0.8128 H         1 <0>         0.1282
     51 H13         1.3047   -1.4428    0.6083 H         1 <0>         0.0905
     52 H14         1.5464   -4.2647    1.8015 H         1 <0>         0.1315
     53 H15         0.8087   -6.1228    3.2299 H         1 <0>         0.1342
     54 H16        -3.0548   -6.0097    1.3647 H         1 <0>         0.1283
     55 H17        -2.3096   -4.1460   -0.0526 H         1 <0>         0.1304
     56 H18        -1.4761   -6.1983    5.0755 H         1 <0>         0.1713
     57 H19        -2.2316   -8.1069    6.4671 H         1 <0>         0.1876
     58 H20        -1.2328  -12.9730    2.6166 H         1 <0>         0.1302
     59 H21        -2.0126  -15.1883    3.3437 H         1 <0>         0.1400
     60 H22        -5.0104  -11.2842    3.7393 H         1 <0>         0.1343
     61 H23        -6.0921  -13.4336    5.5181 H         1 <0>         0.3951
     62 H24        -4.3210  -12.0361    0.7842 H         1 <0>         0.1399
     63 H25        -4.4896  -13.4182   -1.2444 H         1 <0>         0.1640
     64 H26        -0.9735  -11.8253   -2.7702 H         1 <0>         0.1607
     65 H27        -0.6879  -10.3797   -0.7998 H         1 <0>         0.1366
     66 H28         0.8715   -0.6670   -1.5614 H         1 <0>         0.4252
@<TRIPOS>BOND
     1    1    2 1
     2    1   39 1
     3    1   40 1
     4    1   41 1
     5    2    6 1
     6    2    3 1
     7    2   66 1
     8    3    9 1
     9    3    4 1
    10    3   42 1
    11    4    5 1
    12    4   43 1
    13    4   44 1
    14    5    6 1
    15    5   45 1
    16    5   46 1
    17    6    7 1
    18    6   47 1
    19    7    8 1
    20    7   48 1
    21    7   49 1
    22    8    9 1
    23    8   10 1
    24    9   50 1
    25    9   51 1
    26   10   15 ar
    27   10   11 ar
    28   11   12 ar
    29   11   52 1
    30   12   13 ar
    31   12   53 1
    32   13   14 ar
    33   13   16 1
    34   14   15 ar
    35   14   54 1
    36   15   55 1
    37   16   21 1
    38   16   17 2
    39   17   18 1
    40   17   56 1
    41   18   19 2
    42   18   57 1
    43   19   20 1
    44   20   24 2
    45   20   21 1
    46   21   22 1
    47   22   23 2
    48   23   24 1
    49   23   33 1
    50   24   25 1
    51   25   30 ar
    52   25   26 ar
    53   26   27 ar
    54   26   58 1
    55   27   28 ar
    56   27   59 1
    57   28   29 ar
    58   28   32 1
    59   29   30 ar
    60   29   31 1
    61   30   60 1
    62   31   61 1
    63   33   38 ar
    64   33   34 ar
    65   34   35 ar
    66   34   62 1
    67   35   36 ar
    68   35   63 1
    69   36   37 ar
    70   37   38 ar
    71   37   64 1
    72   38   65 1
@<TRIPOS>MOLECULE
CHEMBL247250
   48    51     0     0     0
SMALL
USER_CHARGES

@<TRIPOS>ATOM
      1 C1         -0.7918   -1.1889    1.5773 C.3       1 <0>         0.1057
      2 N1         -0.0683   -0.6011    0.4471 N.am      1 <0>        -0.7475
      3 C2          0.4494   -1.3974   -0.5091 C.2       1 <0>         0.6904
      4 O1          0.3160   -2.6035   -0.4338 O.2       1 <0>        -0.5227
      5 N2          1.1149   -0.8566   -1.5489 N.am      1 <0>        -0.6702
      6 C3          1.7402   -1.6825   -2.4816 C.ar      1 <0>         0.3887
      7 C4          2.5179   -1.1201   -3.4877 C.ar      1 <0>        -0.2108
      8 C5          3.1329   -1.9513   -4.4069 C.ar      1 <0>        -0.0221
      9 C6          2.9483   -3.3222   -4.2877 C.ar      1 <0>        -0.2030
     10 C7          2.1626   -3.8119   -3.2636 C.ar      1 <0>         0.1604
     11 N3          1.5927   -2.9951   -2.3982 N.ar      1 <0>        -0.4735
     12 C8          3.5984   -4.2659   -5.2665 C.3       1 <0>         0.1785
     13 N4          4.9214   -4.6507   -4.7686 N.pl3     1 <0>        -0.6817
     14 C9          5.7146   -5.5200   -5.5055 C.2       1 <0>         0.4455
     15 C10         6.9805   -5.9193   -5.0685 C.2       1 <0>        -0.3999
     16 S1          7.4632   -6.9950   -6.4097 S.3       1 <0>         0.1508
     17 C11         6.0755   -6.8388   -7.3483 C.2       1 <0>         0.1080
     18 N5          5.3181   -6.0221   -6.6547 N.2       1 <0>        -0.5615
     19 C12         7.6839   -5.5686   -3.8916 C.2       1 <0>         0.6268
     20 O2          7.1798   -4.8081   -3.0845 O.2       1 <0>        -0.5278
     21 N6          8.9116   -6.0760   -3.6638 N.am      1 <0>        -0.6692
     22 C13         9.5629   -5.8157   -2.4518 C.ar      1 <0>         0.1772
     23 C14        10.9453   -5.6882   -2.4198 C.ar      1 <0>        -0.1270
     24 C15        11.5893   -5.4310   -1.2247 C.ar      1 <0>        -0.0576
     25 C16        10.8582   -5.3000   -0.0550 C.ar      1 <0>         0.0067
     26 C17         9.4715   -5.4279   -0.0838 C.ar      1 <0>         0.0509
     27 C18         8.8263   -5.6795   -1.2831 C.ar      1 <0>        -0.0883
     28 O3          8.9913   -5.2589    1.1829 O.3       1 <0>        -0.2840
     29 C19        10.1266   -5.4330    2.0511 C.3       1 <0>         0.5706
     30 O4         11.2464   -5.0508    1.2307 O.3       1 <0>        -0.2852
     31 F1         10.0255   -4.5946    3.1665 F         1 <0>        -0.1155
     32 F2         10.2415   -6.7696    2.4480 F         1 <0>        -0.1527
     33 H1         -1.6507   -1.7487    1.2073 H         1 <0>         0.0609
     34 H2         -0.1288   -1.8598    2.1237 H         1 <0>         0.0609
     35 H3         -1.1340   -0.3956    2.2418 H         1 <0>         0.0785
     36 H4          0.0381    0.3611    0.3870 H         1 <0>         0.3978
     37 H5          1.1588    0.1073   -1.6482 H         1 <0>         0.4144
     38 H6          2.6399   -0.0489   -3.5510 H         1 <0>         0.1389
     39 H7          3.7426   -1.5430   -5.1994 H         1 <0>         0.1401
     40 H8          2.0158   -4.8776   -3.1671 H         1 <0>         0.1594
     41 H9          2.9795   -5.1561   -5.3788 H         1 <0>         0.0799
     42 H10         3.7032   -3.7720   -6.2325 H         1 <0>         0.0783
     43 H11         5.2432   -4.2981   -3.9242 H         1 <0>         0.4274
     44 H12         5.8575   -7.3048   -8.2979 H         1 <0>         0.2301
     45 H13         9.3439   -6.6214   -4.3394 H         1 <0>         0.4147
     46 H14        11.5176   -5.7899   -3.3300 H         1 <0>         0.1511
     47 H15        12.6645   -5.3322   -1.2021 H         1 <0>         0.1509
     48 H16         7.7507   -5.7739   -1.3084 H         1 <0>         0.1566
@<TRIPOS>BOND
     1    1    2 1
     2    1   33 1
     3    1   34 1
     4    1   35 1
     5    2    3 am
     6    2   36 1
     7    3    4 2
     8    3    5 am
     9    5    6 1
    10    5   37 1
    11    6   11 ar
    12    6    7 ar
    13    7    8 ar
    14    7   38 1
    15    8    9 ar
    16    8   39 1
    17    9   10 ar
    18    9   12 1
    19   10   11 ar
    20   10   40 1
    21   12   13 1
    22   12   41 1
    23   12   42 1
    24   13   14 1
    25   13   43 1
    26   14   18 1
    27   14   15 2
    28   15   16 1
    29   15   19 1
    30   16   17 1
    31   17   18 2
    32   17   44 1
    33   19   20 2
    34   19   21 am
    35   21   22 1
    36   21   45 1
    37   22   27 ar
    38   22   23 ar
    39   23   24 ar
    40   23   46 1
    41   24   25 ar
    42   24   47 1
    43   25   30 1
    44   25   26 ar
    45   26   27 ar
    46   26   28 1
    47   27   48 1
    48   28   29 1
    49   29   30 1
    50   29   31 1
    51   29   32 1
@<TRIPOS>MOLECULE
CHEMBL399571
   66    71     0     0     0
SMALL
USER_CHARGES

@<TRIPOS>ATOM
      1 C1         -0.1625    1.0962    0.2121 C.ar      1 <0>        -0.1891
      2 C2          0.9251    1.9491    0.3165 C.ar      1 <0>        -0.0325
      3 C3          2.2108    1.4532    0.2491 C.ar      1 <0>        -0.2112
      4 C4          2.4233    0.0910    0.0755 C.ar      1 <0>         0.2847
      5 C5          1.3240   -0.7752   -0.0306 C.ar      1 <0>        -0.2355
      6 C6          0.0281   -0.2571    0.0397 C.ar      1 <0>        -0.0322
      7 C7          1.5352   -2.2223   -0.2155 C.2       1 <0>         0.5761
      8 O1          2.6606   -2.6821   -0.1796 O.2       1 <0>        -0.5270
      9 N1          0.4812   -3.0359   -0.4243 N.am      1 <0>        -0.6623
     10 C8          0.6669   -4.4228   -0.4771 C.ar      1 <0>         0.1739
     11 C9         -0.2167   -5.2147   -1.1985 C.ar      1 <0>        -0.1309
     12 C10        -0.0346   -6.5834   -1.2515 C.ar      1 <0>        -0.0560
     13 C11         1.0295   -7.1696   -0.5853 C.ar      1 <0>         0.0048
     14 C12         1.9175   -6.3779    0.1391 C.ar      1 <0>         0.0528
     15 C13         1.7376   -5.0056    0.1870 C.ar      1 <0>        -0.0976
     16 O2          2.8671   -7.1850    0.6962 O.3       1 <0>        -0.2836
     17 C14         2.3194   -8.5156    0.6447 C.3       1 <0>         0.5707
     18 O3          1.4235   -8.4734   -0.4817 O.3       1 <0>        -0.2850
     19 F1          3.3327   -9.4564    0.4319 F         1 <0>        -0.1149
     20 F2          1.6179   -8.8043    1.8202 F         1 <0>        -0.1525
     21 N2          3.7165   -0.4106    0.0069 N.pl3     1 <0>        -0.7201
     22 C15         4.8588    0.5067    0.0033 C.3       1 <0>         0.1570
     23 C16         6.1386   -0.2849   -0.0770 C.ar      1 <0>        -0.0340
     24 C17         6.7823   -0.7127    1.0765 C.ar      1 <0>        -0.1846
     25 C18         7.9529   -1.4366    0.9684 C.ar      1 <0>         0.1371
     26 N3          8.4639   -1.7241   -0.2136 N.ar      1 <0>        -0.4675
     27 C19         7.8802   -1.3343   -1.3357 C.ar      1 <0>         0.3784
     28 C20         6.6956   -0.6068   -1.3018 C.ar      1 <0>        -0.1874
     29 N4          8.4555   -1.6601   -2.5627 N.am      1 <0>        -0.6670
     30 C21         9.5456   -2.4514   -2.6069 C.2       1 <0>         0.6946
     31 O4          9.9720   -2.9564   -1.5865 O.2       1 <0>        -0.5049
     32 N5         10.1631   -2.6828   -3.7823 N.am      1 <0>        -0.6833
     33 C22        11.2254   -3.5914   -3.8477 C.ar      1 <0>         0.1638
     34 C23        11.2205   -4.7275   -3.0489 C.ar      1 <0>        -0.1158
     35 C24        12.2705   -5.6200   -3.1174 C.ar      1 <0>        -0.0863
     36 C25        13.3302   -5.3881   -3.9795 C.ar      1 <0>        -0.1113
     37 C26        13.3380   -4.2578   -4.7760 C.ar      1 <0>        -0.0791
     38 C27        12.2841   -3.3630   -4.7147 C.ar      1 <0>        -0.1330
     39 C28        14.5941   -4.2357   -5.6206 C.3       1 <0>        -0.0814
     40 C29        15.5543   -5.2361   -4.9429 C.3       1 <0>        -0.1212
     41 C30        14.5807   -6.2024   -4.2353 C.3       1 <0>        -0.0819
     42 H1         -1.1648    1.4943    0.2706 H         1 <0>         0.1275
     43 H2          0.7651    3.0086    0.4512 H         1 <0>         0.1285
     44 H3          3.0529    2.1244    0.3310 H         1 <0>         0.1303
     45 H4         -0.8231   -0.9169   -0.0411 H         1 <0>         0.1241
     46 H5         -0.4061   -2.6607   -0.5380 H         1 <0>         0.4183
     47 H6         -1.0472   -4.7605   -1.7183 H         1 <0>         0.1511
     48 H7         -0.7233   -7.1974   -1.8128 H         1 <0>         0.1511
     49 H8          2.4276   -4.3895    0.7444 H         1 <0>         0.1638
     50 H9          3.8635   -1.3683   -0.0386 H         1 <0>         0.4214
     51 H10         4.7882    1.1715   -0.8576 H         1 <0>         0.0770
     52 H11         4.8536    1.0971    0.9196 H         1 <0>         0.0795
     53 H12         6.3716   -0.4813    2.0482 H         1 <0>         0.1385
     54 H13         8.4571   -1.7715    1.8628 H         1 <0>         0.1630
     55 H14         6.2190   -0.2939   -2.2190 H         1 <0>         0.1369
     56 H15         8.0713   -1.3174   -3.3848 H         1 <0>         0.4150
     57 H16         9.8712   -2.2196   -4.5830 H         1 <0>         0.4062
     58 H17        10.3967   -4.9119   -2.3753 H         1 <0>         0.1352
     59 H18        12.2666   -6.5032   -2.4959 H         1 <0>         0.1242
     60 H19        12.2880   -2.4825   -5.3400 H         1 <0>         0.1227
     61 H20        14.3711   -4.5557   -6.6384 H         1 <0>         0.0810
     62 H21        15.0298   -3.2366   -5.6243 H         1 <0>         0.0750
     63 H22        16.1519   -5.7638   -5.6862 H         1 <0>         0.0774
     64 H23        16.1929   -4.7303   -4.2187 H         1 <0>         0.0729
     65 H24        15.0074   -6.5463   -3.2931 H         1 <0>         0.0750
     66 H25        14.3541   -7.0509   -4.8809 H         1 <0>         0.0797
@<TRIPOS>BOND
     1    1    6 ar
     2    1    2 ar
     3    1   42 1
     4    2    3 ar
     5    2   43 1
     6    3    4 ar
     7    3   44 1
     8    4    5 ar
     9    4   21 1
    10    5    6 ar
    11    5    7 1
    12    6   45 1
    13    7    8 2
    14    7    9 am
    15    9   10 1
    16    9   46 1
    17   10   15 ar
    18   10   11 ar
    19   11   12 ar
    20   11   47 1
    21   12   13 ar
    22   12   48 1
    23   13   18 1
    24   13   14 ar
    25   14   15 ar
    26   14   16 1
    27   15   49 1
    28   16   17 1
    29   17   18 1
    30   17   19 1
    31   17   20 1
    32   21   22 1
    33   21   50 1
    34   22   23 1
    35   22   51 1
    36   22   52 1
    37   23   28 ar
    38   23   24 ar
    39   24   25 ar
    40   24   53 1
    41   25   26 ar
    42   25   54 1
    43   26   27 ar
    44   27   28 ar
    45   27   29 1
    46   28   55 1
    47   29   30 am
    48   29   56 1
    49   30   31 2
    50   30   32 am
    51   32   33 1
    52   32   57 1
    53   33   38 ar
    54   33   34 ar
    55   34   35 ar
    56   34   58 1
    57   35   36 ar
    58   35   59 1
    59   36   41 1
    60   36   37 ar
    61   37   38 ar
    62   37   39 1
    63   38   60 1
    64   39   40 1
    65   39   61 1
    66   39   62 1
    67   40   41 1
    68   40   63 1
    69   40   64 1
    70   41   65 1
    71   41   66 1
@<TRIPOS>MOLECULE
CHEMBL397345
   59    63     0     0     0
SMALL
USER_CHARGES

@<TRIPOS>ATOM
      1 C1          9.4054    1.6261   -0.0991 C.ar      1 <0>        -0.1393
      2 C2          9.3408    0.3988   -0.7331 C.ar      1 <0>        -0.0973
      3 C3          8.1680   -0.3304   -0.7115 C.ar      1 <0>        -0.1288
      4 C4          7.0531    0.1700   -0.0518 C.ar      1 <0>         0.1641
      5 C5          7.1214    1.4026    0.5842 C.ar      1 <0>        -0.1522
      6 C6          8.2970    2.1270    0.5586 C.ar      1 <0>        -0.0983
      7 N1          5.8632   -0.5661   -0.0285 N.am      1 <0>        -0.6816
      8 C7          5.8987   -1.9082   -0.1470 C.2       1 <0>         0.6936
      9 O1          6.9666   -2.4890   -0.1635 O.2       1 <0>        -0.5032
     10 N2          4.7502   -2.6064   -0.2471 N.am      1 <0>        -0.6666
     11 C8          4.7809   -3.9998   -0.2633 C.ar      1 <0>         0.3768
     12 C9          3.5886   -4.7152   -0.2601 C.ar      1 <0>        -0.1881
     13 C10         3.6334   -6.0978   -0.2767 C.ar      1 <0>        -0.0339
     14 C11         4.8744   -6.7202   -0.2961 C.ar      1 <0>        -0.1827
     15 C12         6.0183   -5.9472   -0.2982 C.ar      1 <0>         0.1369
     16 N3          5.9446   -4.6298   -0.2871 N.ar      1 <0>        -0.4668
     17 C13         2.3640   -6.9100   -0.2734 C.3       1 <0>         0.1573
     18 N4          1.9387   -7.1571   -1.6534 N.pl3     1 <0>        -0.7202
     19 C14         0.7859   -7.8900   -1.9041 C.ar      1 <0>         0.2841
     20 C15        -0.0305   -8.2890   -0.8529 C.ar      1 <0>        -0.2112
     21 C16        -1.1753   -9.0166   -1.1046 C.ar      1 <0>        -0.0330
     22 C17        -1.5204   -9.3551   -2.4037 C.ar      1 <0>        -0.1891
     23 C18        -0.7237   -8.9686   -3.4588 C.ar      1 <0>        -0.0324
     24 C19         0.4364   -8.2266   -3.2211 C.ar      1 <0>        -0.2346
     25 C20         1.2907   -7.8050   -4.3460 C.2       1 <0>         0.5759
     26 O2          2.3504   -7.2488   -4.1296 O.2       1 <0>        -0.5278
     27 N5          0.8973   -8.0357   -5.6143 N.am      1 <0>        -0.6662
     28 C21         1.7577   -7.7403   -6.6789 C.ar      1 <0>         0.1716
     29 C22         1.2411   -7.2714   -7.8795 C.ar      1 <0>        -0.1248
     30 C23         2.0888   -6.9795   -8.9308 C.ar      1 <0>        -0.0585
     31 C24         3.4563   -7.1532   -8.7903 C.ar      1 <0>         0.0095
     32 C25         3.9775   -7.6230   -7.5870 C.ar      1 <0>         0.0506
     33 C26         3.1275   -7.9107   -6.5322 C.ar      1 <0>        -0.0868
     34 O3          5.3352   -7.7060   -7.7024 O.3       1 <0>        -0.2837
     35 C27         5.6039   -7.6729   -9.1165 C.3       1 <0>         0.5709
     36 O4          4.4886   -6.9420   -9.6596 O.3       1 <0>        -0.2848
     37 F1          6.8038   -7.0010   -9.3733 F         1 <0>        -0.1145
     38 F2          5.6434   -8.9697   -9.6399 F         1 <0>        -0.1523
     39 H1         10.3248    2.1925   -0.1139 H         1 <0>         0.1231
     40 H2         10.2082    0.0102   -1.2459 H         1 <0>         0.1258
     41 H3          8.1180   -1.2885   -1.2074 H         1 <0>         0.1445
     42 H4          6.2559    1.7945    1.0977 H         1 <0>         0.1242
     43 H5          8.3506    3.0858    1.0528 H         1 <0>         0.1263
     44 H6          5.0130   -0.1105    0.0729 H         1 <0>         0.4070
     45 H7          3.9023   -2.1392   -0.3079 H         1 <0>         0.4152
     46 H8          2.6403   -4.1985   -0.2444 H         1 <0>         0.1371
     47 H9          4.9441   -7.7979   -0.3091 H         1 <0>         0.1386
     48 H10         6.9858   -6.4268   -0.3132 H         1 <0>         0.1633
     49 H11         2.5427   -7.8615    0.2276 H         1 <0>         0.0798
     50 H12         1.5835   -6.3623    0.2548 H         1 <0>         0.0767
     51 H13         2.4622   -6.8087   -2.3919 H         1 <0>         0.4210
     52 H14         0.2316   -8.0296    0.1622 H         1 <0>         0.1300
     53 H15        -1.8064   -9.3247   -0.2842 H         1 <0>         0.1283
     54 H16        -2.4186   -9.9253   -2.5896 H         1 <0>         0.1274
     55 H17        -0.9974   -9.2352   -4.4690 H         1 <0>         0.1243
     56 H18         0.0182   -8.4063   -5.7896 H         1 <0>         0.4177
     57 H19         0.1757   -7.1351   -7.9918 H         1 <0>         0.1515
     58 H20         1.6848   -6.6156   -9.8640 H         1 <0>         0.1514
     59 H21         3.5300   -8.2712   -5.5970 H         1 <0>         0.1542
@<TRIPOS>BOND
     1    1    6 ar
     2    1    2 ar
     3    1   39 1
     4    2    3 ar
     5    2   40 1
     6    3    4 ar
     7    3   41 1
     8    4    5 ar
     9    4    7 1
    10    5    6 ar
    11    5   42 1
    12    6   43 1
    13    7    8 am
    14    7   44 1
    15    8    9 2
    16    8   10 am
    17   10   11 1
    18   10   45 1
    19   11   16 ar
    20   11   12 ar
    21   12   13 ar
    22   12   46 1
    23   13   14 ar
    24   13   17 1
    25   14   15 ar
    26   14   47 1
    27   15   16 ar
    28   15   48 1
    29   17   18 1
    30   17   49 1
    31   17   50 1
    32   18   19 1
    33   18   51 1
    34   19   24 ar
    35   19   20 ar
    36   20   21 ar
    37   20   52 1
    38   21   22 ar
    39   21   53 1
    40   22   23 ar
    41   22   54 1
    42   23   24 ar
    43   23   55 1
    44   24   25 1
    45   25   26 2
    46   25   27 am
    47   27   28 1
    48   27   56 1
    49   28   33 ar
    50   28   29 ar
    51   29   30 ar
    52   29   57 1
    53   30   31 ar
    54   30   58 1
    55   31   36 1
    56   31   32 ar
    57   32   33 ar
    58   32   34 1
    59   33   59 1
    60   34   35 1
    61   35   36 1
    62   35   37 1
    63   35   38 1
@<TRIPOS>MOLECULE
CHEMBL1076204
   68    73     0     0     0
SMALL
USER_CHARGES

@<TRIPOS>ATOM
      1 C1          0.0257    1.4500    0.0026 C.3       1 <0>        -0.0467
      2 N1          0.0484   -0.0188   -0.0021 N.4       1 <0>        -0.3847
      3 C2         -1.3288   -0.5278   -0.0107 C.3       1 <0>        -0.0222
      4 C3         -1.3071   -2.0552   -0.1312 C.3       1 <0>         0.1019
      5 N2         -0.4666   -2.5961    0.9482 N.pl3     1 <0>        -0.6291
      6 C4          0.8766   -2.0253    1.1332 C.3       1 <0>         0.1048
      7 C5          0.7517   -0.4994    1.1940 C.3       1 <0>        -0.0223
      8 C6         -0.9291   -3.6182    1.7710 C.ar      1 <0>         0.3820
      9 C7         -2.2039   -4.1391    1.5685 C.ar      1 <0>        -0.2253
     10 C8         -2.6562   -5.1535    2.3891 C.ar      1 <0>        -0.0254
     11 C9         -1.8071   -5.6208    3.3998 C.ar      1 <0>        -0.0688
     12 C10        -0.5449   -5.0498    3.5408 C.ar      1 <0>         0.1700
     13 N3         -0.1487   -4.0862    2.7327 N.ar      1 <0>        -0.5316
     14 C11        -2.2458   -6.7075    4.3071 C.2       1 <0>        -0.2048
     15 C12        -3.4543   -6.7652    5.0084 C.2       1 <0>         0.1089
     16 N4         -3.4873   -7.8752    5.7063 N.2       1 <0>        -0.2941
     17 N5         -2.3039   -8.5893    5.4915 N.pl3     1 <0>        -0.2976
     18 C13        -1.5298   -7.8708    4.6170 C.2       1 <0>         0.2806
     19 N6         -0.3350   -8.3251    4.2284 N.2       1 <0>        -0.4638
     20 C14         0.1349   -9.4719    4.6665 C.2       1 <0>         0.1901
     21 C15        -0.6119  -10.2482    5.5558 C.2       1 <0>        -0.2031
     22 C16        -1.8452   -9.7915    5.9750 C.2       1 <0>         0.2466
     23 C17        -2.6630  -10.5867    6.9126 C.ar      1 <0>        -0.0929
     24 C18        -2.3349  -10.6261    8.2689 C.ar      1 <0>        -0.0535
     25 C19        -3.1072  -11.3740    9.1425 C.ar      1 <0>         0.1390
     26 C20        -4.2054  -12.0833    8.6690 C.ar      1 <0>        -0.0880
     27 C21        -4.5323  -12.0464    7.3270 C.ar      1 <0>        -0.1293
     28 C22        -3.7728  -11.2986    6.4464 C.ar      1 <0>         0.1291
     29 F1         -4.0991  -11.2602    5.1359 F         1 <0>        -0.1280
     30 N7         -2.7814  -11.4161   10.5031 N.am      1 <0>        -0.6678
     31 C23        -2.2678  -10.3262   11.1071 C.2       1 <0>         0.5648
     32 O1         -2.1783   -9.2786   10.4969 O.2       1 <0>        -0.5070
     33 C24        -1.8135  -10.4047   12.5115 C.ar      1 <0>        -0.1416
     34 C25        -1.9095  -11.6078   13.2133 C.ar      1 <0>        -0.0529
     35 C26        -1.4833  -11.6743   14.5234 C.ar      1 <0>        -0.1216
     36 C27        -0.9613  -10.5520   15.1423 C.ar      1 <0>        -0.0395
     37 C28        -0.8637   -9.3566   14.4527 C.ar      1 <0>        -0.1880
     38 C29        -1.2811   -9.2779   13.1400 C.ar      1 <0>        -0.0063
     39 C30        -0.2949   -8.1393   15.1351 C.3       1 <0>         0.5100
     40 F2          0.0604   -8.4643   16.4486 F         1 <0>        -0.1729
     41 F3          0.8378   -7.7018   14.4403 F         1 <0>        -0.1732
     42 F4         -1.2548   -7.1217   15.1498 F         1 <0>        -0.1725
     43 H1          1.0476    1.8292    0.0009 H         1 <0>         0.1250
     44 H2         -0.4961    1.8081   -0.8849 H         1 <0>         0.1246
     45 H3         -0.4913    1.8026    0.8951 H         1 <0>         0.1212
     46 H4         -1.8273   -0.2434    0.9159 H         1 <0>         0.1325
     47 H5         -1.8676   -0.1041   -0.8582 H         1 <0>         0.1423
     48 H6         -2.3207   -2.4446   -0.0363 H         1 <0>         0.1284
     49 H7         -0.8909   -2.3405   -1.0974 H         1 <0>         0.0915
     50 H8          1.3066   -2.3950    2.0641 H         1 <0>         0.1382
     51 H9          1.5132   -2.3076    0.2947 H         1 <0>         0.0851
     52 H10         1.7460   -0.0547    1.2342 H         1 <0>         0.1408
     53 H11         0.1903   -0.2158    2.0842 H         1 <0>         0.1313
     54 H12        -2.8322   -3.7541    0.7789 H         1 <0>         0.1330
     55 H13        -3.6410   -5.5760    2.2548 H         1 <0>         0.1393
     56 H14         0.1178   -5.4027    4.3171 H         1 <0>         0.1587
     57 H15        -4.2334   -6.0178    4.9800 H         1 <0>         0.1997
     58 H16         1.1039   -9.8162    4.3365 H         1 <0>         0.1883
     59 H17        -0.2267  -11.1909    5.9154 H         1 <0>         0.1733
     60 H18        -1.4813  -10.0756    8.6359 H         1 <0>         0.1487
     61 H19        -4.8051  -12.6656    9.3529 H         1 <0>         0.1471
     62 H20        -5.3864  -12.5999    6.9656 H         1 <0>         0.1524
     63 H21        -2.9253  -12.2297   11.0113 H         1 <0>         0.4161
     64 H22        -2.3170  -12.4843   12.7316 H         1 <0>         0.1381
     65 H23        -1.5574  -12.6042   15.0676 H         1 <0>         0.1483
     66 H24        -0.6290  -10.6094   16.1683 H         1 <0>         0.1490
     67 H25        -1.2003   -8.3453   12.6014 H         1 <0>         0.1489
     68 H26         0.5298   -0.3439   -0.8271 H         1 <0>         0.4247
@<TRIPOS>BOND
     1    1    2 1
     2    1   43 1
     3    1   44 1
     4    1   45 1
     5    2    7 1
     6    2    3 1
     7    2   68 1
     8    3    4 1
     9    3   46 1
    10    3   47 1
    11    4    5 1
    12    4   48 1
    13    4   49 1
    14    5    6 1
    15    5    8 1
    16    6    7 1
    17    6   50 1
    18    6   51 1
    19    7   52 1
    20    7   53 1
    21    8   13 ar
    22    8    9 ar
    23    9   10 ar
    24    9   54 1
    25   10   11 ar
    26   10   55 1
    27   11   12 ar
    28   11   14 1
    29   12   13 ar
    30   12   56 1
    31   14   18 2
    32   14   15 1
    33   15   16 2
    34   15   57 1
    35   16   17 1
    36   17   22 1
    37   17   18 1
    38   18   19 1
    39   19   20 2
    40   20   21 1
    41   20   58 1
    42   21   22 2
    43   21   59 1
    44   22   23 1
    45   23   28 ar
    46   23   24 ar
    47   24   25 ar
    48   24   60 1
    49   25   26 ar
    50   25   30 1
    51   26   27 ar
    52   26   61 1
    53   27   28 ar
    54   27   62 1
    55   28   29 1
    56   30   31 am
    57   30   63 1
    58   31   32 2
    59   31   33 1
    60   33   38 ar
    61   33   34 ar
    62   34   35 ar
    63   34   64 1
    64   35   36 ar
    65   35   65 1
    66   36   37 ar
    67   36   66 1
    68   37   38 ar
    69   37   39 1
    70   38   67 1
    71   39   40 1
    72   39   41 1
    73   39   42 1
@<TRIPOS>MOLECULE
CHEMBL1076204__1
   68    73     0     0     0
SMALL
USER_CHARGES

@<TRIPOS>ATOM
      1 C1          0.0272    1.4462   -0.0060 C.3       1 <0>         0.0220
      2 N1          0.0525   -0.0226   -0.0081 N.3       1 <0>        -0.5423
      3 C2         -1.3057   -0.5723   -0.1131 C.3       1 <0>         0.0337
      4 C3         -1.2256   -2.0918   -0.2943 C.3       1 <0>         0.1158
      5 N2         -0.4112   -2.6500    0.7959 N.pl3     1 <0>        -0.5926
      6 C4          0.9103   -2.0570    1.0512 C.3       1 <0>         0.1034
      7 C5          0.7460   -0.5389    1.1794 C.3       1 <0>         0.0375
      8 C6         -0.8788   -3.7105    1.5655 C.ar      1 <0>         0.4375
      9 C7         -2.1742   -4.1814    1.3710 C.ar      1 <0>        -0.1934
     10 C8         -2.6314   -5.2344    2.1386 C.ar      1 <0>         0.0401
     11 C9         -1.7663   -5.7902    3.0893 C.ar      1 <0>        -0.0169
     12 C10        -0.4840   -5.2649    3.2260 C.ar      1 <0>         0.1472
     13 N3         -0.0839   -4.2618    2.4694 N.ar      1 <0>        -0.4982
     14 C11        -2.2095   -6.9213    3.9382 C.2       1 <0>        -0.2409
     15 C12        -3.3973   -6.9912    4.6729 C.2       1 <0>         0.1253
     16 N4         -3.4422   -8.1430    5.2985 N.2       1 <0>        -0.2855
     17 N5         -2.2876   -8.8742    5.0000 N.pl3     1 <0>        -0.2946
     18 C13        -1.5194   -8.1218    4.1492 C.2       1 <0>         0.2983
     19 N6         -0.3510   -8.5827    3.6938 N.2       1 <0>        -0.4803
     20 C14         0.0975   -9.7683    4.0416 C.2       1 <0>         0.2060
     21 C15        -0.6448  -10.5801    4.9026 C.2       1 <0>        -0.2007
     22 C16        -1.8506  -10.1177    5.3900 C.2       1 <0>         0.2587
     23 C17        -2.6629  -10.9494    6.3001 C.ar      1 <0>        -0.1018
     24 C18        -2.2951  -11.0867    7.6398 C.ar      1 <0>        -0.0527
     25 C19        -3.0625  -11.8684    8.4878 C.ar      1 <0>         0.1412
     26 C20        -4.1952  -12.5143    8.0052 C.ar      1 <0>        -0.0844
     27 C21        -4.5615  -12.3807    6.6796 C.ar      1 <0>        -0.1276
     28 C22        -3.8071  -11.5983    5.8250 C.ar      1 <0>         0.1303
     29 F1         -4.1717  -11.4652    4.5309 F         1 <0>        -0.1279
     30 N7         -2.6969  -12.0084    9.8317 N.am      1 <0>        -0.6682
     31 C23        -2.1324  -10.9752   10.4876 C.2       1 <0>         0.5670
     32 O1         -2.0306   -9.8927    9.9439 O.2       1 <0>        -0.5094
     33 C24        -1.6369  -11.1584   11.8682 C.ar      1 <0>        -0.1436
     34 C25        -1.7470  -12.4018   12.4934 C.ar      1 <0>        -0.0527
     35 C26        -1.2823  -12.5661   13.7816 C.ar      1 <0>        -0.1210
     36 C27        -0.7079  -11.5018   14.4543 C.ar      1 <0>        -0.0382
     37 C28        -0.5961  -10.2670   13.8407 C.ar      1 <0>        -0.1877
     38 C29        -1.0518  -10.0906   12.5503 C.ar      1 <0>        -0.0061
     39 C30         0.0299   -9.1134   14.5813 C.3       1 <0>         0.5098
     40 F2          0.4161   -9.5337   15.8585 F         1 <0>        -0.1722
     41 F3          1.1530   -8.6629   13.8791 F         1 <0>        -0.1735
     42 F4         -0.8982   -8.0726   14.6936 F         1 <0>        -0.1724
     43 H1          1.0485    1.8272   -0.0045 H         1 <0>         0.0781
     44 H2         -0.4920    1.8020   -0.8960 H         1 <0>         0.0791
     45 H3         -0.4936    1.7994    0.8840 H         1 <0>         0.0328
     46 H4         -1.8621   -0.3432    0.7958 H         1 <0>         0.0476
     47 H5         -1.8119   -0.1299   -0.9711 H         1 <0>         0.1056
     48 H6         -2.2280   -2.5183   -0.2578 H         1 <0>         0.1045
     49 H7         -0.7612   -2.3223   -1.2531 H         1 <0>         0.1026
     50 H8          1.3199   -2.4605    1.9773 H         1 <0>         0.0806
     51 H9          1.5799   -2.2841    0.2217 H         1 <0>         0.1066
     52 H10         1.7279   -0.0722    1.2588 H         1 <0>         0.1043
     53 H11         0.1611   -0.3102    2.0703 H         1 <0>         0.0465
     54 H12        -2.8144   -3.7283    0.6286 H         1 <0>         0.1798
     55 H13        -3.6320   -5.6196    2.0092 H         1 <0>         0.1729
     56 H14         0.1912   -5.6861    3.9562 H         1 <0>         0.1995
     57 H15        -4.1543   -6.2221    4.7179 H         1 <0>         0.2059
     58 H16         1.0454  -10.1170    3.6591 H         1 <0>         0.1935
     59 H17        -0.2770  -11.5546    5.1881 H         1 <0>         0.1787
     60 H18        -1.4147  -10.5852    8.0138 H         1 <0>         0.1492
     61 H19        -4.7909  -13.1232    8.6690 H         1 <0>         0.1490
     62 H20        -5.4422  -12.8854    6.3109 H         1 <0>         0.1542
     63 H21        -2.8500  -12.8490   10.2908 H         1 <0>         0.4173
     64 H22        -2.1954  -13.2331   11.9697 H         1 <0>         0.1381
     65 H23        -1.3672  -13.5274   14.2666 H         1 <0>         0.1489
     66 H24        -0.3456  -11.6358   15.4628 H         1 <0>         0.1497
     67 H25        -0.9599   -9.1272   12.0709 H         1 <0>         0.1485
     68 H26         0.8156   -3.9162    2.5807 H         1 <0>         0.4373
@<TRIPOS>BOND
     1    1    2 1
     2    1   43 1
     3    1   44 1
     4    1   45 1
     5    2    7 1
     6    2    3 1
     7    3    4 1
     8    3   46 1
     9    3   47 1
    10    4    5 1
    11    4   48 1
    12    4   49 1
    13    5    6 1
    14    5    8 1
    15    6    7 1
    16    6   50 1
    17    6   51 1
    18    7   52 1
    19    7   53 1
    20    8   13 ar
    21    8    9 ar
    22    9   10 ar
    23    9   54 1
    24   10   11 ar
    25   10   55 1
    26   11   12 ar
    27   11   14 1
    28   12   13 ar
    29   12   56 1
    30   13   68 1
    31   14   18 2
    32   14   15 1
    33   15   16 2
    34   15   57 1
    35   16   17 1
    36   17   22 1
    37   17   18 1
    38   18   19 1
    39   19   20 2
    40   20   21 1
    41   20   58 1
    42   21   22 2
    43   21   59 1
    44   22   23 1
    45   23   28 ar
    46   23   24 ar
    47   24   25 ar
    48   24   60 1
    49   25   26 ar
    50   25   30 1
    51   26   27 ar
    52   26   61 1
    53   27   28 ar
    54   27   62 1
    55   28   29 1
    56   30   31 am
    57   30   63 1
    58   31   32 2
    59   31   33 1
    60   33   38 ar
    61   33   34 ar
    62   34   35 ar
    63   34   64 1
    64   35   36 ar
    65   35   65 1
    66   36   37 ar
    67   36   66 1
    68   37   38 ar
    69   37   39 1
    70   38   67 1
    71   39   40 1
    72   39   41 1
    73   39   42 1
@<TRIPOS>MOLECULE
CHEMBL1076204__2
   69    74     0     0     0
SMALL
USER_CHARGES

@<TRIPOS>ATOM
      1 C1          0.0257    1.4452   -0.0061 C.3       1 <0>        -0.0495
      2 N1          0.0512   -0.0236   -0.0084 N.4       1 <0>        -0.3868
      3 C2         -1.3251   -0.5352   -0.0204 C.3       1 <0>        -0.0249
      4 C3         -1.3000   -2.0627   -0.1384 C.3       1 <0>         0.0941
      5 N2         -0.4617   -2.6004    0.9443 N.pl3     1 <0>        -0.6270
      6 C4          0.8798   -2.0268    1.1324 C.3       1 <0>         0.0800
      7 C5          0.7519   -0.5010    1.1904 C.3       1 <0>        -0.0207
      8 C6         -0.9247   -3.6222    1.7672 C.ar      1 <0>         0.4205
      9 C7         -2.2353   -4.0716    1.6330 C.ar      1 <0>        -0.1812
     10 C8         -2.6878   -5.0860    2.4533 C.ar      1 <0>         0.0433
     11 C9         -1.8027   -5.6260    3.3946 C.ar      1 <0>         0.0163
     12 C10        -0.5060   -5.1240    3.4697 C.ar      1 <0>         0.1470
     13 N3         -0.1112   -4.1578    2.6640 N.ar      1 <0>        -0.4834
     14 C11        -2.2401   -6.7160    4.2986 C.2       1 <0>        -0.2658
     15 C12        -3.4036   -6.7335    5.0742 C.2       1 <0>         0.1306
     16 N4         -3.4509   -7.8609    5.7426 N.2       1 <0>        -0.2793
     17 N5         -2.3223   -8.6272    5.4333 N.pl3     1 <0>        -0.2927
     18 C13        -1.5679   -7.9228    4.5306 C.2       1 <0>         0.3083
     19 N6         -0.4253   -8.4250    4.0541 N.2       1 <0>        -0.4897
     20 C14         0.0103   -9.6068    4.4301 C.2       1 <0>         0.2145
     21 C15        -0.7190  -10.3708    5.3443 C.2       1 <0>        -0.1985
     22 C16        -1.8979   -9.8651    5.8539 C.2       1 <0>         0.2674
     23 C17        -2.6959  -10.6458    6.8203 C.ar      1 <0>        -0.1090
     24 C18        -2.2860  -10.7427    8.1512 C.ar      1 <0>        -0.0524
     25 C19        -3.0402  -11.4765    9.0521 C.ar      1 <0>         0.1438
     26 C20        -4.2015  -12.1147    8.6311 C.ar      1 <0>        -0.0814
     27 C21        -4.6095  -12.0209    7.3143 C.ar      1 <0>        -0.1261
     28 C22        -3.8686  -11.2863    6.4072 C.ar      1 <0>         0.1302
     29 F1         -4.2739  -11.1919    5.1219 F         1 <0>        -0.1287
     30 N7         -2.6325  -11.5761   10.3874 N.am      1 <0>        -0.6685
     31 C23        -2.0251  -10.5325   10.9862 C.2       1 <0>         0.5695
     32 O1         -1.9195   -9.4727   10.4001 O.2       1 <0>        -0.5129
     33 C24        -1.4874  -10.6765   12.3555 C.ar      1 <0>        -0.1461
     34 C25        -1.6019  -11.8939   13.0292 C.ar      1 <0>        -0.0521
     35 C26        -1.0976  -12.0217   14.3067 C.ar      1 <0>        -0.1198
     36 C27        -0.4793  -10.9466   14.9205 C.ar      1 <0>        -0.0365
     37 C28        -0.3629   -9.7374   14.2587 C.ar      1 <0>        -0.1878
     38 C29        -0.8579   -9.5978   12.9784 C.ar      1 <0>        -0.0061
     39 C30         0.3112   -8.5718   14.9355 C.3       1 <0>         0.5100
     40 F2          0.7314   -8.9541   16.2139 F         1 <0>        -0.1711
     41 F3          1.4190   -8.1714   14.1808 F         1 <0>        -0.1742
     42 F4         -0.5911   -7.5077   15.0400 F         1 <0>        -0.1727
     43 H1          1.0468    1.8264   -0.0053 H         1 <0>         0.1316
     44 H2         -0.4942    1.8010   -0.8956 H         1 <0>         0.1332
     45 H3         -0.4946    1.7981    0.8844 H         1 <0>         0.1261
     46 H4         -1.8268   -0.2504    0.9044 H         1 <0>         0.1404
     47 H5         -1.8621   -0.1138   -0.8701 H         1 <0>         0.1584
     48 H6         -2.3132   -2.4539   -0.0459 H         1 <0>         0.1417
     49 H7         -0.8805   -2.3487   -1.1030 H         1 <0>         0.1167
     50 H8          1.3078   -2.3942    2.0651 H         1 <0>         0.1181
     51 H9          1.5194   -2.3092    0.2962 H         1 <0>         0.1201
     52 H10         1.7452   -0.0543    1.2329 H         1 <0>         0.1570
     53 H11         0.1873   -0.2172    2.0786 H         1 <0>         0.1397
     54 H12        -2.8907   -3.6316    0.8959 H         1 <0>         0.1819
     55 H13        -3.6999   -5.4539    2.3711 H         1 <0>         0.1809
     56 H14         0.1847   -5.5333    4.1921 H         1 <0>         0.2079
     57 H15        -4.1427   -5.9471    5.1158 H         1 <0>         0.2068
     58 H16         0.9374   -9.9895    4.0297 H         1 <0>         0.1964
     59 H17        -0.3619  -11.3422    5.6531 H         1 <0>         0.1827
     60 H18        -1.3834  -10.2473    8.4774 H         1 <0>         0.1495
     61 H19        -4.7869  -12.6863    9.3362 H         1 <0>         0.1510
     62 H20        -5.5124  -12.5193    6.9937 H         1 <0>         0.1557
     63 H21        -2.7870  -12.3962   10.8819 H         1 <0>         0.4187
     64 H22        -2.0846  -12.7336   12.5514 H         1 <0>         0.1384
     65 H23        -1.1858  -12.9628   14.8291 H         1 <0>         0.1501
     66 H24        -0.0861  -11.0520   15.9209 H         1 <0>         0.1507
     67 H25        -0.7625   -8.6545   12.4611 H         1 <0>         0.1476
     68 H26         0.7984   -3.8279    2.7328 H         1 <0>         0.4377
     69 H27         0.5356   -0.3490   -0.8315 H         1 <0>         0.4303
@<TRIPOS>BOND
     1    1    2 1
     2    1   43 1
     3    1   44 1
     4    1   45 1
     5    2    7 1
     6    2    3 1
     7    2   69 1
     8    3    4 1
     9    3   46 1
    10    3   47 1
    11    4    5 1
    12    4   48 1
    13    4   49 1
    14    5    6 1
    15    5    8 1
    16    6    7 1
    17    6   50 1
    18    6   51 1
    19    7   52 1
    20    7   53 1
    21    8   13 ar
    22    8    9 ar
    23    9   10 ar
    24    9   54 1
    25   10   11 ar
    26   10   55 1
    27   11   12 ar
    28   11   14 1
    29   12   13 ar
    30   12   56 1
    31   13   68 1
    32   14   18 2
    33   14   15 1
    34   15   16 2
    35   15   57 1
    36   16   17 1
    37   17   22 1
    38   17   18 1
    39   18   19 1
    40   19   20 2
    41   20   21 1
    42   20   58 1
    43   21   22 2
    44   21   59 1
    45   22   23 1
    46   23   28 ar
    47   23   24 ar
    48   24   25 ar
    49   24   60 1
    50   25   26 ar
    51   25   30 1
    52   26   27 ar
    53   26   61 1
    54   27   28 ar
    55   27   62 1
    56   28   29 1
    57   30   31 am
    58   30   63 1
    59   31   32 2
    60   31   33 1
    61   33   38 ar
    62   33   34 ar
    63   34   35 ar
    64   34   64 1
    65   35   36 ar
    66   35   65 1
    67   36   37 ar
    68   36   66 1
    69   37   38 ar
    70   37   39 1
    71   38   67 1
    72   39   40 1
    73   39   41 1
    74   39   42 1
@<TRIPOS>MOLECULE
CHEMBL1080438
   48    52     0     0     0
SMALL
USER_CHARGES

@<TRIPOS>ATOM
      1 C1         -0.0089    1.3657   -0.0272 C.ar      1 <0>        -0.1226
      2 C2          1.1732    2.0773   -0.0317 C.ar      1 <0>        -0.0535
      3 C3          2.3122    1.5360    0.5663 C.ar      1 <0>        -0.1396
      4 C4          2.2470    0.2767    1.1655 C.ar      1 <0>        -0.0072
      5 C5          1.0589   -0.4241    1.1630 C.ar      1 <0>        -0.1884
      6 C6         -0.0667    0.1184    0.5683 C.ar      1 <0>        -0.0391
      7 C7          0.9867   -1.7838    1.8088 C.3       1 <0>         0.5100
      8 F1          0.6305   -1.6426    3.1543 F         1 <0>        -0.1726
      9 F2          0.0276   -2.5619    1.1517 F         1 <0>        -0.1738
     10 F3          2.2350   -2.4091    1.7201 F         1 <0>        -0.1726
     11 C8          3.5821    2.2924    0.5649 C.2       1 <0>         0.5654
     12 O1          4.5726    1.8184    1.0865 O.2       1 <0>        -0.5062
     13 N1          3.6419    3.5077   -0.0148 N.am      1 <0>        -0.6668
     14 C9          4.8158    4.2656    0.0679 C.ar      1 <0>         0.1348
     15 C10         6.0539    3.6335    0.0409 C.ar      1 <0>        -0.0680
     16 C11         7.2167    4.3756    0.1222 C.ar      1 <0>        -0.1321
     17 C12         7.1568    5.7525    0.2310 C.ar      1 <0>         0.1310
     18 C13         5.9159    6.3971    0.2585 C.ar      1 <0>        -0.0872
     19 C14         4.7430    5.6451    0.1709 C.ar      1 <0>        -0.0779
     20 C15         5.8468    7.8673    0.3750 C.2       1 <0>         0.2352
     21 C16         5.4902    8.4622    1.5680 C.2       1 <0>        -0.2021
     22 C17         5.4345    9.8563    1.6440 C.2       1 <0>         0.1776
     23 N2          5.7178   10.5917    0.5924 N.2       1 <0>        -0.4503
     24 C18         6.0651   10.0340   -0.5715 C.2       1 <0>         0.2660
     25 N3          6.1420    8.6702   -0.7015 N.pl3     1 <0>        -0.3019
     26 N4          6.5316    8.3846   -2.0141 N.2       1 <0>        -0.3018
     27 C19         6.6958    9.5099   -2.6692 C.2       1 <0>         0.0989
     28 C20         6.4080   10.5770   -1.8147 C.2       1 <0>        -0.1463
     29 C21         6.4706   12.0204   -2.1575 C.2       1 <0>        -0.1485
     30 C22         7.5059   12.6574   -2.7764 C.2       1 <0>         0.0665
     31 N5          7.1669   13.9592   -2.9029 N.pl3     1 <0>        -0.4764
     32 H1          7.7119   14.6524   -3.3070 H         1 <0>         0.4411
     33 N6          5.8925   14.1340   -2.3500 N.2       1 <0>        -0.2956
     34 C23         5.4694   12.9788   -1.9081 C.2       1 <0>         0.0750
     35 F4          8.2958    6.4747    0.3111 F         1 <0>        -0.1275
     36 H2         -0.8921    1.7854   -0.4856 H         1 <0>         0.1469
     37 H3          1.2171    3.0508   -0.4972 H         1 <0>         0.1372
     38 H4          3.1248   -0.1480    1.6297 H         1 <0>         0.1529
     39 H5         -0.9945   -0.4344    0.5693 H         1 <0>         0.1455
     40 H6          2.8715    3.8572   -0.4893 H         1 <0>         0.4139
     41 H7          6.1070    2.5581   -0.0436 H         1 <0>         0.1563
     42 H8          8.1752    3.8784    0.1010 H         1 <0>         0.1500
     43 H9          3.7817    6.1371    0.1875 H         1 <0>         0.1421
     44 H10         5.2567    7.8578    2.4321 H         1 <0>         0.1695
     45 H11         5.1566   10.3324    2.5726 H         1 <0>         0.1847
     46 H12         6.9952    9.5966   -3.7032 H         1 <0>         0.1989
     47 H13         8.4290   12.2036   -3.1055 H         1 <0>         0.1779
     48 H14         4.5180   12.7922   -1.4322 H         1 <0>         0.1807
@<TRIPOS>BOND
     1    1    6 ar
     2    1    2 ar
     3    1   36 1
     4    2    3 ar
     5    2   37 1
     6    3    4 ar
     7    3   11 1
     8    4    5 ar
     9    4   38 1
    10    5    6 ar
    11    5    7 1
    12    6   39 1
    13    7    8 1
    14    7    9 1
    15    7   10 1
    16   11   12 2
    17   11   13 am
    18   13   14 1
    19   13   40 1
    20   14   19 ar
    21   14   15 ar
    22   15   16 ar
    23   15   41 1
    24   16   17 ar
    25   16   42 1
    26   17   18 ar
    27   17   35 1
    28   18   19 ar
    29   18   20 1
    30   19   43 1
    31   20   25 1
    32   20   21 2
    33   21   22 1
    34   21   44 1
    35   22   23 2
    36   22   45 1
    37   23   24 1
    38   24   28 2
    39   24   25 1
    40   25   26 1
    41   26   27 2
    42   27   28 1
    43   27   46 1
    44   28   29 1
    45   29   34 1
    46   29   30 2
    47   30   31 1
    48   30   47 1
    49   31   32 1
    50   31   33 1
    51   33   34 2
    52   34   48 1
@<TRIPOS>MOLECULE
CHEMBL512329
   46    48     0     0     0
SMALL
USER_CHARGES

@<TRIPOS>ATOM
      1 C1         -1.0487   -2.1869    0.8922 C.3       1 <0>        -0.1394
      2 C2         -0.0454   -3.3414    0.8533 C.3       1 <0>         0.0013
      3 C3          1.0233   -3.1247    1.9265 C.3       1 <0>        -0.1398
      4 C4         -0.7747   -4.6600    1.1185 C.3       1 <0>        -0.1443
      5 C5          0.6084   -3.3931   -0.5035 C.2       1 <0>         0.1378
      6 C6          1.5991   -2.5189   -0.9722 C.2       1 <0>        -0.3225
      7 C7          1.9281   -2.8944   -2.2349 C.2       1 <0>         0.3300
      8 O1          1.1777   -3.9623   -2.5546 O.3       1 <0>        -0.0639
      9 N1          0.3542   -4.2625   -1.4424 N.2       1 <0>        -0.3098
     10 N2          2.8702   -2.2843   -3.0497 N.am      1 <0>        -0.6381
     11 C8          3.0998   -2.7618   -4.2889 C.2       1 <0>         0.6984
     12 O2          2.4811   -3.7273   -4.6927 O.2       1 <0>        -0.5219
     13 N3          4.0153   -2.1689   -5.0806 N.am      1 <0>        -0.6742
     14 C9          4.3424   -2.7357   -6.3196 C.ar      1 <0>         0.1616
     15 C10         5.6455   -2.6645   -6.7936 C.ar      1 <0>        -0.1255
     16 C11         5.9673   -3.2237   -8.0144 C.ar      1 <0>        -0.0990
     17 C12         4.9887   -3.8562   -8.7676 C.ar      1 <0>         0.0649
     18 C13         3.6864   -3.9273   -8.2946 C.ar      1 <0>        -0.1048
     19 C14         3.3647   -3.3739   -7.0711 C.ar      1 <0>        -0.1026
     20 O3          5.3061   -4.4063   -9.9698 O.3       1 <0>        -0.2498
     21 C15         5.0213   -3.6959  -11.0906 C.ar      1 <0>         0.1633
     22 C16         5.2032   -4.2524  -12.3545 C.ar      1 <0>        -0.2002
     23 C17         4.9021   -3.4976  -13.4694 C.ar      1 <0>         0.1338
     24 N4          4.4480   -2.2645  -13.3487 N.ar      1 <0>        -0.5057
     25 C18         4.2624   -1.7026  -12.1692 C.ar      1 <0>         0.1350
     26 C19         4.5341   -2.3936  -11.0063 C.ar      1 <0>        -0.2481
     27 H1         -0.5292   -1.2475    0.7033 H         1 <0>         0.0625
     28 H2         -1.8101   -2.3412    0.1276 H         1 <0>         0.0603
     29 H3         -1.5217   -2.1495    1.8736 H         1 <0>         0.0714
     30 H4          0.5503   -3.0874    2.9079 H         1 <0>         0.0703
     31 H5          1.7380   -3.9472    1.8987 H         1 <0>         0.0604
     32 H6          1.5428   -2.1853    1.7375 H         1 <0>         0.0629
     33 H7         -1.5360   -4.8143    0.3539 H         1 <0>         0.0642
     34 H8         -0.0599   -5.4824    1.0908 H         1 <0>         0.0606
     35 H9         -1.2476   -4.6226    2.0999 H         1 <0>         0.0671
     36 H10         2.0259   -1.6915   -0.4247 H         1 <0>         0.1618
     37 H11         3.3639   -1.5139   -2.7276 H         1 <0>         0.4319
     38 H12         4.4478   -1.3498   -4.7927 H         1 <0>         0.4141
     39 H13         6.4071   -2.1715   -6.2078 H         1 <0>         0.1386
     40 H14         6.9809   -3.1683   -8.3833 H         1 <0>         0.1398
     41 H15         2.9250   -4.4195   -8.8815 H         1 <0>         0.1372
     42 H16         2.3519   -3.4331   -6.7010 H         1 <0>         0.1516
     43 H17         5.5753   -5.2608  -12.4602 H         1 <0>         0.1450
     44 H18         5.0402   -3.9211  -14.4533 H         1 <0>         0.1656
     45 H19         3.8893   -0.6906  -12.1133 H         1 <0>         0.1594
     46 H20         4.3757   -1.9296  -10.0440 H         1 <0>         0.1390
@<TRIPOS>BOND
     1    1    2 1
     2    1   27 1
     3    1   28 1
     4    1   29 1
     5    2    3 1
     6    2    4 1
     7    2    5 1
     8    3   30 1
     9    3   31 1
    10    3   32 1
    11    4   33 1
    12    4   34 1
    13    4   35 1
    14    5    9 2
    15    5    6 1
    16    6    7 2
    17    6   36 1
    18    7    8 1
    19    7   10 1
    20    8    9 1
    21   10   11 am
    22   10   37 1
    23   11   12 2
    24   11   13 am
    25   13   14 1
    26   13   38 1
    27   14   19 ar
    28   14   15 ar
    29   15   16 ar
    30   15   39 1
    31   16   17 ar
    32   16   40 1
    33   17   18 ar
    34   17   20 1
    35   18   19 ar
    36   18   41 1
    37   19   42 1
    38   20   21 1
    39   21   26 ar
    40   21   22 ar
    41   22   23 ar
    42   22   43 1
    43   23   24 ar
    44   23   44 1
    45   24   25 ar
    46   25   26 ar
    47   25   45 1
    48   26   46 1
@<TRIPOS>MOLECULE
CHEMBL512329__1
   47    49     0     0     0
SMALL
USER_CHARGES

@<TRIPOS>ATOM
      1 C1         -1.0487   -2.1869    0.8922 C.3       1 <0>        -0.1399
      2 C2         -0.0454   -3.3414    0.8533 C.3       1 <0>         0.0004
      3 C3          1.0233   -3.1247    1.9265 C.3       1 <0>        -0.1406
      4 C4         -0.7747   -4.6600    1.1185 C.3       1 <0>        -0.1452
      5 C5          0.6084   -3.3931   -0.5035 C.2       1 <0>         0.1396
      6 C6          1.5991   -2.5189   -0.9722 C.2       1 <0>        -0.3130
      7 C7          1.9281   -2.8944   -2.2349 C.2       1 <0>         0.3205
      8 O1          1.1777   -3.9623   -2.5546 O.3       1 <0>        -0.0657
      9 N1          0.3542   -4.2625   -1.4424 N.2       1 <0>        -0.3052
     10 N2          2.8702   -2.2843   -3.0497 N.am      1 <0>        -0.6352
     11 C8          3.0998   -2.7618   -4.2889 C.2       1 <0>         0.7009
     12 O2          2.4811   -3.7273   -4.6927 O.2       1 <0>        -0.5208
     13 N3          4.0153   -2.1689   -5.0806 N.am      1 <0>        -0.6781
     14 C9          4.3424   -2.7357   -6.3196 C.ar      1 <0>         0.1904
     15 C10         5.6455   -2.6645   -6.7936 C.ar      1 <0>        -0.1269
     16 C11         5.9673   -3.2237   -8.0144 C.ar      1 <0>        -0.0829
     17 C12         4.9887   -3.8562   -8.7676 C.ar      1 <0>         0.0157
     18 C13         3.6864   -3.9273   -8.2946 C.ar      1 <0>        -0.0932
     19 C14         3.3647   -3.3739   -7.0711 C.ar      1 <0>        -0.1050
     20 O3          5.3061   -4.4063   -9.9698 O.3       1 <0>        -0.2087
     21 C15         5.0213   -3.6959  -11.0906 C.ar      1 <0>         0.2464
     22 C16         5.2032   -4.2524  -12.3545 C.ar      1 <0>        -0.1590
     23 C17         4.9021   -3.4976  -13.4694 C.ar      1 <0>         0.1646
     24 N4          4.4480   -2.2645  -13.3487 N.ar      1 <0>        -0.4719
     25 C18         4.2628   -1.7024  -12.1692 C.ar      1 <0>         0.1688
     26 C19         4.5341   -2.3936  -11.0063 C.ar      1 <0>        -0.2124
     27 H1         -0.5292   -1.2475    0.7033 H         1 <0>         0.0624
     28 H2         -1.8101   -2.3412    0.1276 H         1 <0>         0.0603
     29 H3         -1.5217   -2.1495    1.8736 H         1 <0>         0.0733
     30 H4          0.5503   -3.0874    2.9079 H         1 <0>         0.0723
     31 H5          1.7380   -3.9472    1.8987 H         1 <0>         0.0607
     32 H6          1.5428   -2.1853    1.7375 H         1 <0>         0.0628
     33 H7         -1.5360   -4.8143    0.3539 H         1 <0>         0.0642
     34 H8         -0.0599   -5.4824    1.0908 H         1 <0>         0.0608
     35 H9         -1.2476   -4.6226    2.0999 H         1 <0>         0.0691
     36 H10         2.0259   -1.6915   -0.4247 H         1 <0>         0.1636
     37 H11         3.3639   -1.5139   -2.7276 H         1 <0>         0.4336
     38 H12         4.4478   -1.3498   -4.7927 H         1 <0>         0.4182
     39 H13         6.4071   -2.1715   -6.2078 H         1 <0>         0.1474
     40 H14         6.9809   -3.1683   -8.3833 H         1 <0>         0.1457
     41 H15         2.9250   -4.4195   -8.8815 H         1 <0>         0.1421
     42 H16         2.3519   -3.4331   -6.7010 H         1 <0>         0.1596
     43 H17         5.5753   -5.2608  -12.4602 H         1 <0>         0.1933
     44 H18         5.0402   -3.9211  -14.4533 H         1 <0>         0.2169
     45 H19         3.8900   -0.6904  -12.1133 H         1 <0>         0.2118
     46 H20         4.3757   -1.9296  -10.0440 H         1 <0>         0.1851
     47 H21         4.2447   -1.7566  -14.1498 H         1 <0>         0.4532
@<TRIPOS>BOND
     1    1    2 1
     2    1   27 1
     3    1   28 1
     4    1   29 1
     5    2    3 1
     6    2    4 1
     7    2    5 1
     8    3   30 1
     9    3   31 1
    10    3   32 1
    11    4   33 1
    12    4   34 1
    13    4   35 1
    14    5    9 2
    15    5    6 1
    16    6    7 2
    17    6   36 1
    18    7    8 1
    19    7   10 1
    20    8    9 1
    21   10   11 am
    22   10   37 1
    23   11   12 2
    24   11   13 am
    25   13   14 1
    26   13   38 1
    27   14   19 ar
    28   14   15 ar
    29   15   16 ar
    30   15   39 1
    31   16   17 ar
    32   16   40 1
    33   17   18 ar
    34   17   20 1
    35   18   19 ar
    36   18   41 1
    37   19   42 1
    38   20   21 1
    39   21   26 ar
    40   21   22 ar
    41   22   23 ar
    42   22   43 1
    43   23   24 ar
    44   23   44 1
    45   24   25 ar
    46   24   47 1
    47   25   26 ar
    48   25   45 1
    49   26   46 1
@<TRIPOS>MOLECULE
CHEMBL395705
   62    66     0     0     0
SMALL
USER_CHARGES

@<TRIPOS>ATOM
      1 C1         -0.5221    1.5487    3.3088 C.ar      1 <0>        -0.1103
      2 C2         -0.5268    0.1884    3.5548 C.ar      1 <0>        -0.1221
      3 C3          0.6114   -0.4308    4.0362 C.ar      1 <0>        -0.0994
      4 C4          1.7545    0.3101    4.2713 C.ar      1 <0>        -0.1120
      5 C5          1.7595    1.6702    4.0244 C.ar      1 <0>        -0.0992
      6 C6          0.6208    2.2897    3.5443 C.ar      1 <0>        -0.1219
      7 C7          2.9951   -0.3648    4.7971 C.3       1 <0>         0.1811
      8 N1          3.8168   -0.8204    3.6731 N.am      1 <0>        -0.7395
      9 C8          4.9825   -1.4561    3.9046 C.2       1 <0>         0.6937
     10 O1          5.3521   -1.6515    5.0463 O.2       1 <0>        -0.5237
     11 N2          5.7385   -1.8753    2.8705 N.am      1 <0>        -0.6702
     12 C9          6.9920   -2.4375    3.1064 C.ar      1 <0>         0.3801
     13 C10         7.8106   -2.7707    2.0330 C.ar      1 <0>        -0.1902
     14 C11         9.0523   -3.3280    2.2813 C.ar      1 <0>        -0.0343
     15 C12         9.4343   -3.5337    3.6002 C.ar      1 <0>        -0.1870
     16 C13         8.5707   -3.1789    4.6172 C.ar      1 <0>         0.1364
     17 N3          7.3943   -2.6442    4.3502 N.ar      1 <0>        -0.4668
     18 C14         9.9692   -3.7037    1.1459 C.3       1 <0>         0.1572
     19 N4         10.8260   -2.5631    0.8123 N.pl3     1 <0>        -0.7202
     20 C15        11.7597   -2.6716   -0.2102 C.ar      1 <0>         0.2843
     21 C16        11.8076   -3.8182   -0.9935 C.ar      1 <0>        -0.2111
     22 C17        12.7357   -3.9234   -2.0088 C.ar      1 <0>        -0.0330
     23 C18        13.6257   -2.8899   -2.2561 C.ar      1 <0>        -0.1894
     24 C19        13.5935   -1.7454   -1.4903 C.ar      1 <0>        -0.0322
     25 C20        12.6560   -1.6211   -0.4614 C.ar      1 <0>        -0.2350
     26 C21        12.6123   -0.3968    0.3583 C.2       1 <0>         0.5762
     27 O2         11.7343   -0.2509    1.1871 O.2       1 <0>        -0.5278
     28 N5         13.5455    0.5609    0.1895 N.am      1 <0>        -0.6662
     29 C22        13.5729    1.6702    1.0437 C.ar      1 <0>         0.1720
     30 C23        13.9387    2.9162    0.5520 C.ar      1 <0>        -0.1249
     31 C24        13.9661    4.0117    1.3936 C.ar      1 <0>        -0.0584
     32 C25        13.6284    3.8704    2.7300 C.ar      1 <0>         0.0093
     33 C26        13.2606    2.6220    3.2260 C.ar      1 <0>         0.0507
     34 C27        13.2287    1.5254    2.3807 C.ar      1 <0>        -0.0868
     35 O3         12.9783    2.7466    4.5558 O.3       1 <0>        -0.2836
     36 C28        13.5698    3.9958    4.9592 C.3       1 <0>         0.5708
     37 O4         13.5763    4.7774    3.7501 O.3       1 <0>        -0.2848
     38 F1         12.7888    4.6152    5.9408 F         1 <0>        -0.1146
     39 F2         14.8748    3.7950    5.4218 F         1 <0>        -0.1523
     40 H1         -1.4100    2.0317    2.9284 H         1 <0>         0.1241
     41 H2         -1.4199   -0.3905    3.3712 H         1 <0>         0.1249
     42 H3          0.6076   -1.4935    4.2291 H         1 <0>         0.1245
     43 H4          2.6525    2.2492    4.2084 H         1 <0>         0.1245
     44 H5          0.6246    3.3524    3.3518 H         1 <0>         0.1249
     45 H6          3.5649    0.3416    5.4008 H         1 <0>         0.0776
     46 H7          2.7113   -1.2204    5.4099 H         1 <0>         0.0778
     47 H8          3.5220   -0.6646    2.7622 H         1 <0>         0.3969
     48 H9          5.4102   -1.7858    1.9622 H         1 <0>         0.4133
     49 H10         7.4813   -2.5972    1.0191 H         1 <0>         0.1362
     50 H11        10.3969   -3.9671    3.8281 H         1 <0>         0.1372
     51 H12         8.8633   -3.3374    5.6446 H         1 <0>         0.1621
     52 H13        10.5894   -4.5490    1.4442 H         1 <0>         0.0791
     53 H14         9.3748   -3.9787    0.2746 H         1 <0>         0.0767
     54 H15        10.7412   -1.7322    1.3055 H         1 <0>         0.4214
     55 H16        11.1179   -4.6281   -0.8070 H         1 <0>         0.1301
     56 H17        12.7692   -4.8168   -2.6147 H         1 <0>         0.1283
     57 H18        14.3484   -2.9827   -3.0532 H         1 <0>         0.1272
     58 H19        14.2893   -0.9433   -1.6874 H         1 <0>         0.1238
     59 H20        14.1982    0.4817   -0.5237 H         1 <0>         0.4176
     60 H21        14.2025    3.0292   -0.4892 H         1 <0>         0.1515
     61 H22        14.2516    4.9797    1.0092 H         1 <0>         0.1514
     62 H23        12.9399    0.5573    2.7624 H         1 <0>         0.1538
@<TRIPOS>BOND
     1    1    6 ar
     2    1    2 ar
     3    1   40 1
     4    2    3 ar
     5    2   41 1
     6    3    4 ar
     7    3   42 1
     8    4    5 ar
     9    4    7 1
    10    5    6 ar
    11    5   43 1
    12    6   44 1
    13    7    8 1
    14    7   45 1
    15    7   46 1
    16    8    9 am
    17    8   47 1
    18    9   10 2
    19    9   11 am
    20   11   12 1
    21   11   48 1
    22   12   17 ar
    23   12   13 ar
    24   13   14 ar
    25   13   49 1
    26   14   15 ar
    27   14   18 1
    28   15   16 ar
    29   15   50 1
    30   16   17 ar
    31   16   51 1
    32   18   19 1
    33   18   52 1
    34   18   53 1
    35   19   20 1
    36   19   54 1
    37   20   25 ar
    38   20   21 ar
    39   21   22 ar
    40   21   55 1
    41   22   23 ar
    42   22   56 1
    43   23   24 ar
    44   23   57 1
    45   24   25 ar
    46   24   58 1
    47   25   26 1
    48   26   27 2
    49   26   28 am
    50   28   29 1
    51   28   59 1
    52   29   34 ar
    53   29   30 ar
    54   30   31 ar
    55   30   60 1
    56   31   32 ar
    57   31   61 1
    58   32   37 1
    59   32   33 ar
    60   33   34 ar
    61   33   35 1
    62   34   62 1
    63   35   36 1
    64   36   37 1
    65   36   38 1
    66   36   39 1
@<TRIPOS>MOLECULE
CHEMBL373011
   39    42     0     0     0
SMALL
USER_CHARGES

@<TRIPOS>ATOM
      1 C1          0.0070    1.3571    0.5325 C.ar      1 <0>        -0.1055
      2 C2          1.1769    2.0767    0.3653 C.ar      1 <0>        -0.1165
      3 C3          2.3798    1.4182    0.2151 C.ar      1 <0>        -0.0737
      4 C4          2.4150    0.0230    0.2324 C.ar      1 <0>        -0.0233
      5 C5          1.2312   -0.6968    0.4019 C.ar      1 <0>        -0.1090
      6 C6          0.0349   -0.0260    0.5506 C.ar      1 <0>        -0.1156
      7 C7          3.7005   -0.6894    0.0715 C.2       1 <0>         0.2707
      8 N1          3.8583   -2.0443    0.0662 N.pl3     1 <0>        -0.5499
      9 H1          3.1563   -2.7062    0.1663 H         1 <0>         0.4251
     10 C8          5.2002   -2.2962   -0.1083 C.2       1 <0>         0.0328
     11 C9          5.8203   -1.0611   -0.2045 C.2       1 <0>         0.0748
     12 N2          4.8719   -0.1182   -0.0949 N.2       1 <0>        -0.4548
     13 C10         7.2700   -0.8239   -0.3988 C.ar      1 <0>         0.0148
     14 C11         7.9877   -1.5923   -1.3153 C.ar      1 <0>        -0.0966
     15 C12         9.3376   -1.3692   -1.4948 C.ar      1 <0>        -0.0930
     16 C13         9.9827   -0.3846   -0.7675 C.ar      1 <0>        -0.0593
     17 C14         9.2750    0.3850    0.1472 C.ar      1 <0>         0.1188
     18 C15         7.9190    0.1716    0.3294 C.ar      1 <0>        -0.1046
     19 O1          9.9126    1.3511    0.8596 O.3       1 <0>        -0.4852
     20 Cl1        11.6813   -0.1107   -0.9982 Cl        1 <0>        -0.0539
     21 C16         5.8493   -3.6188   -0.1788 C.ar      1 <0>         0.0234
     22 C17         7.0020   -3.8968    0.5688 C.ar      1 <0>        -0.1427
     23 C18         7.5750   -5.1466    0.4725 C.ar      1 <0>         0.1085
     24 N3          7.0535   -6.0735   -0.3094 N.ar      1 <0>        -0.4786
     25 C19         5.9697   -5.8543   -1.0302 C.ar      1 <0>         0.1067
     26 C20         5.3276   -4.6353   -0.9909 C.ar      1 <0>        -0.1652
     27 H2         -0.9316    1.8775    0.6538 H         1 <0>         0.1282
     28 H3          1.1482    3.1562    0.3521 H         1 <0>         0.1315
     29 H4          3.2922    1.9809    0.0840 H         1 <0>         0.1384
     30 H5          1.2516   -1.7766    0.4158 H         1 <0>         0.1176
     31 H6         -0.8818   -0.5818    0.6819 H         1 <0>         0.1293
     32 H7          7.4872   -2.3620   -1.8840 H         1 <0>         0.1313
     33 H8          9.8922   -1.9649   -2.2048 H         1 <0>         0.1410
     34 H9          7.3668    0.7719    1.0372 H         1 <0>         0.1428
     35 H10         9.9160    2.2181    0.4313 H         1 <0>         0.3951
     36 H11         7.4346   -3.1431    1.2101 H         1 <0>         0.1393
     37 H12         8.4633   -5.3707    1.0445 H         1 <0>         0.1625
     38 H13         5.5783   -6.6424   -1.6564 H         1 <0>         0.1607
     39 H14         4.4385   -4.4645   -1.5799 H         1 <0>         0.1341
@<TRIPOS>BOND
     1    1    6 ar
     2    1    2 ar
     3    1   27 1
     4    2    3 ar
     5    2   28 1
     6    3    4 ar
     7    3   29 1
     8    4    5 ar
     9    4    7 1
    10    5    6 ar
    11    5   30 1
    12    6   31 1
    13    7   12 2
    14    7    8 1
    15    8    9 1
    16    8   10 1
    17   10   11 2
    18   10   21 1
    19   11   12 1
    20   11   13 1
    21   13   18 ar
    22   13   14 ar
    23   14   15 ar
    24   14   32 1
    25   15   16 ar
    26   15   33 1
    27   16   17 ar
    28   16   20 1
    29   17   18 ar
    30   17   19 1
    31   18   34 1
    32   19   35 1
    33   21   26 ar
    34   21   22 ar
    35   22   23 ar
    36   22   36 1
    37   23   24 ar
    38   23   37 1
    39   24   25 ar
    40   25   26 ar
    41   25   38 1
    42   26   39 1
@<TRIPOS>MOLECULE
CHEMBL373011__1
   39    42     0     0     0
SMALL
USER_CHARGES

@<TRIPOS>ATOM
      1 C1         -0.0167    1.3794    0.0096 C.ar      1 <0>        -0.1055
      2 C2          1.1684    2.0935    0.0021 C.ar      1 <0>        -0.1165
      3 C3          2.3774    1.4292   -0.0129 C.ar      1 <0>        -0.0739
      4 C4          2.4034    0.0337   -0.0206 C.ar      1 <0>        -0.0232
      5 C5          1.2043   -0.6806   -0.0130 C.ar      1 <0>        -0.1090
      6 C6          0.0021   -0.0041    0.0020 C.ar      1 <0>        -0.1155
      7 C7          3.6955   -0.6847   -0.0372 C.2       1 <0>         0.2697
      8 N1          4.8805   -0.1195   -0.0455 N.2       1 <0>        -0.4522
      9 H1          3.1344   -2.7005   -0.0334 H         1 <0>         0.4255
     10 C8          5.8307   -1.0686   -0.0593 C.2       1 <0>         0.0657
     11 C9          5.1963   -2.3004   -0.0597 C.2       1 <0>         0.0429
     12 N2          3.8466   -2.0420   -0.0405 N.pl3     1 <0>        -0.5511
     13 C10         5.8423   -3.6276   -0.0726 C.ar      1 <0>        -0.0034
     14 C11         6.9131   -3.8777   -0.9345 C.ar      1 <0>        -0.0845
     15 C12         7.5147   -5.1189   -0.9435 C.ar      1 <0>        -0.0888
     16 C13         7.0606   -6.1189   -0.1013 C.ar      1 <0>        -0.0560
     17 C14         5.9963   -5.8792    0.7592 C.ar      1 <0>         0.1234
     18 C15         5.3892   -4.6356    0.7805 C.ar      1 <0>        -0.1240
     19 O1          5.5545   -6.8651    1.5842 O.3       1 <0>        -0.4845
     20 Cl1         7.8232   -7.6783   -0.1204 Cl        1 <0>        -0.0473
     21 C16         7.2934   -0.8398   -0.0727 C.ar      1 <0>         0.0392
     22 C17         8.1630   -1.7070    0.5981 C.ar      1 <0>        -0.1582
     23 C18         9.5184   -1.4564    0.5597 C.ar      1 <0>         0.1018
     24 N3          9.9970   -0.4167   -0.0973 N.ar      1 <0>        -0.4833
     25 C19         9.2121    0.4253   -0.7428 C.ar      1 <0>         0.1010
     26 C20         7.8450    0.2465   -0.7613 C.ar      1 <0>        -0.1457
     27 H2         -0.9605    1.9041    0.0260 H         1 <0>         0.1282
     28 H3          1.1468    3.1732    0.0078 H         1 <0>         0.1316
     29 H4          3.3017    1.9878   -0.0191 H         1 <0>         0.1384
     30 H5          1.2176   -1.7605   -0.0193 H         1 <0>         0.1178
     31 H6         -0.9265   -0.5556    0.0079 H         1 <0>         0.1294
     32 H7          7.2694   -3.0998   -1.5934 H         1 <0>         0.1389
     33 H8          8.3424   -5.3112   -1.6102 H         1 <0>         0.1459
     34 H9          4.5645   -4.4469    1.4518 H         1 <0>         0.1376
     35 H10         5.9915   -6.8815    2.4467 H         1 <0>         0.3968
     36 H11         7.7783   -2.5596    1.1380 H         1 <0>         0.1329
     37 H12        10.1976   -2.1198    1.0746 H         1 <0>         0.1575
     38 H13         9.6469    1.2632   -1.2676 H         1 <0>         0.1589
     39 H14         7.2091    0.9367   -1.2957 H         1 <0>         0.1397
@<TRIPOS>BOND
     1    1    6 ar
     2    1    2 ar
     3    1   27 1
     4    2    3 ar
     5    2   28 1
     6    3    4 ar
     7    3   29 1
     8    4    5 ar
     9    4    7 1
    10    5    6 ar
    11    5   30 1
    12    6   31 1
    13    7    8 2
    14    7   12 1
    15    8   10 1
    16    9   12 1
    17   10   21 1
    18   10   11 2
    19   11   13 1
    20   11   12 1
    21   13   18 ar
    22   13   14 ar
    23   14   15 ar
    24   14   32 1
    25   15   16 ar
    26   15   33 1
    27   16   17 ar
    28   16   20 1
    29   17   18 ar
    30   17   19 1
    31   18   34 1
    32   19   35 1
    33   21   26 ar
    34   21   22 ar
    35   22   23 ar
    36   22   36 1
    37   23   24 ar
    38   23   37 1
    39   24   25 ar
    40   25   26 ar
    41   25   38 1
    42   26   39 1
