@<TRIPOS>MOLECULE
3D4Q-SM5
 51 55 0 0 0
SMALL
SF_CHARGES


@<TRIPOS>ATOM
1    C        87.5860    6.9220   -7.5930  C.3        1 SUBUNIT      0.2906
2    N        86.1670    7.2950   -7.6370  N.pl3      1 SUBUNIT      0.2605
3    C        81.6530    4.6490   -5.7640  C.2        1 SUBUNIT     -0.0940
4    C        82.7000    5.5100   -6.1410  C.2        1 SUBUNIT     -0.0954
5    C        82.5440    6.4220   -7.1840  C.2        1 SUBUNIT     -0.0055
6    C        81.1940    6.4880   -7.9520  C.2        1 SUBUNIT     -0.0987
7    C        80.1590    5.5860   -7.5350  C.2        1 SUBUNIT     -0.0052
8    C        80.4380    4.6840   -6.4410  C.2        1 SUBUNIT     -0.0185
9    C        81.8330    9.3240   -7.5860  C.2        1 SUBUNIT     -0.1157
10   N        85.7210    8.5800   -8.0120  N.pl3      1 SUBUNIT     -0.2870
11   C        80.9140   10.3890   -7.8650  C.2        1 SUBUNIT      0.1841
12   C        82.5030   11.5550   -9.1340  C.2        1 SUBUNIT      0.1841
13   C        89.8700    7.4050   -7.8600  C.3        1 SUBUNIT      0.1420
14   C        83.5760   10.4790   -8.9100  C.2        1 SUBUNIT     -0.1157
15   C        85.1430    6.4040   -7.3060  C.2        1 SUBUNIT      0.1909
16   C        83.2120    9.4050   -8.1440  C.2        1 SUBUNIT     -0.0198
17   C        83.7340    7.1640   -7.4610  C.2        1 SUBUNIT     -0.0142
18   C        87.7740    5.4600   -8.0120  C.3        1 SUBUNIT     -0.0740
19   C        89.2320    4.9460   -7.7250  C.3        1 SUBUNIT      0.1420
20   C        84.0570    8.4330   -7.8780  C.2        1 SUBUNIT      0.1502
21   N        81.2270   11.4930   -8.6190  N.2        1 SUBUNIT     -0.4917
22   N        90.2100    5.9550   -8.2090  N.4        1 SUBUNIT     -0.3877
23   C        88.4150    7.7280   -8.2820  C.3        1 SUBUNIT     -0.0740
24   C        78.7450    5.3560   -8.0390  C.2        1 SUBUNIT     -0.0817
25   C        78.1780    4.1230   -7.0480  C.2        1 SUBUNIT     -0.0967
26   C        79.3620    3.8420   -6.1140  C.2        1 SUBUNIT      0.2765
27   N        79.4410    3.0460   -5.1830  N.2        1 SUBUNIT     -0.3306
28   O        78.2300    2.3440   -5.0280  O.3        1 SUBUNIT     -0.3704
29   H        87.9144    7.1222   -6.5678  H          1 SUBUNIT      0.0562
30   H        81.7868    3.9586   -4.9496  H          1 SUBUNIT      0.1239
31   H        83.6394    5.4675   -5.6181  H          1 SUBUNIT      0.1233
32   H        81.0031    7.1654   -8.7659  H          1 SUBUNIT      0.1225
33   H        81.5139    8.4915   -6.9836  H          1 SUBUNIT      0.1205
34   H        86.3182    9.3460   -8.2814  H          1 SUBUNIT      0.3298
35   H        79.9142   10.3412   -7.4702  H          1 SUBUNIT      0.0923
36   H        82.7040   12.4339   -9.7213  H          1 SUBUNIT      0.0923
37   H        89.9769    7.5488   -6.7798  H          1 SUBUNIT      0.0469
38   H        90.5594    8.0724   -8.3876  H          1 SUBUNIT      0.0469
39   H        84.5752   10.5132   -9.3077  H          1 SUBUNIT      0.1205
40   H        85.3371    5.3894   -7.0050  H          1 SUBUNIT      0.0979
41   H        87.0601    4.8447   -7.4545  H          1 SUBUNIT      0.0628
42   H        87.5686    5.3772   -9.0844  H          1 SUBUNIT      0.0628
43   H        89.3770    4.8005   -6.6494  H          1 SUBUNIT      0.0469
44   H        89.4101    4.0011   -8.2490  H          1 SUBUNIT      0.0469
45   H        90.2635    5.8723   -9.2122  H          1 SUBUNIT      0.3197
46   H        91.1058    5.7311   -7.8047  H          1 SUBUNIT      0.3197
47   H        88.2591    7.5433   -9.3500  H          1 SUBUNIT      0.0628
48   H        88.1529    8.7652   -8.0484  H          1 SUBUNIT      0.0628
49   H        78.2650    5.8842   -8.8442  H          1 SUBUNIT      0.1053
50   H        77.2255    3.6226   -7.0354  H          1 SUBUNIT      0.1067
51   H        77.6078    2.8986   -4.5516  H          1 SUBUNIT      0.3858
@<TRIPOS>BOND
     1    1    2 1
     2    1   18 1
     3    1   23 1
     4    2   10 1
     5    2   15 2
     6    3    4 1
     7    3    8 2
     8    4    5 2
     9    5    6 1
    10    5   17 1
    11    6    7 2
    12    7    8 1
    13    7   24 1
    14    8   26 1
    15    9   11 2
    16    9   16 1
    17   10   20 1
    18   11   21 1
    19   12   14 1
    20   12   21 2
    21   13   22 1
    22   13   23 1
    23   14   16 2
    24   15   17 1
    25   16   20 1
    26   17   20 2
    27   18   19 1
    28   19   22 1
    29   24   25 2
    30   25   26 1
    31   26   27 2
    32   27   28 1
    33    1   29 1
    34    3   30 1
    35    4   31 1
    36    6   32 1
    37    9   33 1
    38   10   34 1
    39   11   35 1
    40   12   36 1
    41   13   37 1
    42   13   38 1
    43   14   39 1
    44   15   40 1
    45   18   41 1
    46   18   42 1
    47   19   43 1
    48   19   44 1
    49   22   45 1
    50   22   46 1
    51   23   47 1
    52   23   48 1
    53   24   49 1
    54   25   50 1
    55   28   51 1
