@<TRIPOS>MOLECULE
CHEMBL495762
   51    55     0     0     0
SMALL
USER_CHARGES

@<TRIPOS>ATOM
      1 C1          1.6064   -1.5683   -2.8351 C.3       1 <0>        -0.0468
      2 N1          1.3587   -2.9409   -2.3742 N.4       1 <0>        -0.3836
      3 C2         -0.0880   -3.1614   -2.2542 C.3       1 <0>        -0.0238
      4 C3         -0.3517   -4.6249   -1.8846 C.3       1 <0>         0.1007
      5 N2          0.4140   -4.9444   -0.6699 N.pl3     1 <0>        -0.6429
      6 C4          1.8451   -4.6045   -0.6430 C.3       1 <0>         0.0996
      7 C5          2.0050   -3.1420   -1.0712 C.3       1 <0>        -0.0227
      8 C6         -0.2011   -5.5535    0.4286 C.ar      1 <0>         0.2074
      9 C7         -1.5787   -5.7631    0.4240 C.ar      1 <0>        -0.1844
     10 C8         -2.1948   -6.3566    1.4885 C.ar      1 <0>        -0.0188
     11 C9         -1.4421   -6.7602    2.5960 C.ar      1 <0>         0.0244
     12 C10        -0.0521   -6.5506    2.6034 C.ar      1 <0>         0.0891
     13 C11         0.5627   -5.9512    1.5141 C.ar      1 <0>        -0.1827
     14 N3          0.4080   -7.0457    3.8102 N.pl3     1 <0>        -0.5845
     15 C12        -0.6798   -7.5312    4.4901 C.2       1 <0>         0.3789
     16 N4         -1.7642   -7.3600    3.7703 N.2       1 <0>        -0.4978
     17 C13        -0.6375   -8.1512    5.8251 C.2       1 <0>        -0.2598
     18 C14        -1.7896   -8.7203    6.3719 C.2       1 <0>         0.3632
     19 C15        -1.6960   -9.3265    7.7056 C.ar      1 <0>        -0.1449
     20 C16        -0.4602   -9.3118    8.3772 C.ar      1 <0>         0.2214
     21 C17        -0.3632   -9.8839    9.6407 C.ar      1 <0>        -0.1592
     22 C18        -1.4726  -10.4587   10.2240 C.ar      1 <0>        -0.0369
     23 C19        -2.6920  -10.4747    9.5633 C.ar      1 <0>        -0.1374
     24 C20        -2.8126   -9.9129    8.3102 C.ar      1 <0>         0.0295
     25 Cl1        -4.3410   -9.9340    7.4871 Cl        1 <0>        -0.0331
     26 N5          0.6421   -8.7322    7.7808 N.am      1 <0>        -0.6302
     27 H1          1.4889   -8.7286    8.2539 H         1 <0>         0.4230
     28 C21         0.5720   -8.1791    6.5588 C.2       1 <0>         0.5750
     29 O1          1.5738   -7.6843    6.0721 O.2       1 <0>        -0.5577
     30 N6         -2.9777   -8.7127    5.6812 N.pl3     1 <0>        -0.8262
     31 H2          2.6798   -1.4058   -2.9323 H         1 <0>         0.1245
     32 H3          1.1271   -1.4177   -3.8024 H         1 <0>         0.1250
     33 H4          1.1961   -0.8628   -2.1126 H         1 <0>         0.1214
     34 H5         -0.4914   -2.5120   -1.4772 H         1 <0>         0.1326
     35 H6         -0.5705   -2.9340   -3.2048 H         1 <0>         0.1408
     36 H7         -1.4155   -4.7690   -1.6956 H         1 <0>         0.1285
     37 H8         -0.0308   -5.2723   -2.7007 H         1 <0>         0.0875
     38 H9          2.2337   -4.7350    0.3669 H         1 <0>         0.1252
     39 H10         2.3878   -5.2498   -1.3337 H         1 <0>         0.0871
     40 H11         3.0649   -2.9002   -1.1501 H         1 <0>         0.1401
     41 H12         1.5383   -2.4932   -0.3300 H         1 <0>         0.1324
     42 H13        -2.1644   -5.4532   -0.4288 H         1 <0>         0.1287
     43 H14        -3.2632   -6.5138    1.4753 H         1 <0>         0.1348
     44 H15         1.6309   -5.7918    1.5136 H         1 <0>         0.1218
     45 H16         0.5809   -9.8784   10.1651 H         1 <0>         0.1479
     46 H17        -1.3911  -10.9015   11.2057 H         1 <0>         0.1501
     47 H18        -3.5516  -10.9290   10.0332 H         1 <0>         0.1485
     48 H19        -2.9904   -8.9294    4.7358 H         1 <0>         0.4177
     49 H20        -3.8035   -8.4905    6.1390 H         1 <0>         0.4080
     50 H21         1.7415   -3.5930   -3.0423 H         1 <0>         0.4246
     51 H22         1.3279   -7.0494    4.1179 H         1 <0>         0.4345
@<TRIPOS>BOND
     1    1    2 1
     2    1   31 1
     3    1   32 1
     4    1   33 1
     5    2    7 1
     6    2    3 1
     7    2   50 1
     8    3    4 1
     9    3   34 1
    10    3   35 1
    11    4    5 1
    12    4   36 1
    13    4   37 1
    14    5    6 1
    15    5    8 1
    16    6    7 1
    17    6   38 1
    18    6   39 1
    19    7   40 1
    20    7   41 1
    21    8   13 ar
    22    8    9 ar
    23    9   10 ar
    24    9   42 1
    25   10   11 ar
    26   10   43 1
    27   11   16 1
    28   11   12 ar
    29   12   13 ar
    30   12   14 1
    31   13   44 1
    32   14   15 1
    33   14   51 1
    34   15   16 2
    35   15   17 1
    36   17   28 1
    37   17   18 2
    38   18   19 1
    39   18   30 1
    40   19   24 ar
    41   19   20 ar
    42   20   21 ar
    43   20   26 1
    44   21   22 ar
    45   21   45 1
    46   22   23 ar
    47   22   46 1
    48   23   24 ar
    49   23   47 1
    50   24   25 1
    51   26   27 1
    52   26   28 am
    53   28   29 2
    54   30   48 1
    55   30   49 1
@<TRIPOS>MOLECULE
CHEMBL495762__1
   50    54     0     0     0
SMALL
USER_CHARGES

@<TRIPOS>ATOM
      1 C1          0.0798    0.9862   -0.5253 C.3       1 <0>         0.0244
      2 N1         -0.3815    0.4779    0.7734 N.3       1 <0>        -0.5425
      3 C2          0.5753   -0.4874    1.3309 C.3       1 <0>         0.0384
      4 C3          0.1527   -0.8549    2.7573 C.3       1 <0>         0.1269
      5 N2         -1.2452   -1.3112    2.7275 N.pl3     1 <0>        -0.6322
      6 C4         -2.2416   -0.4582    2.0621 C.3       1 <0>         0.1282
      7 C5         -1.7248   -0.1063    0.6631 C.3       1 <0>         0.0384
      8 C6         -1.6174   -2.5245    3.3169 C.ar      1 <0>         0.2148
      9 C7         -2.9628   -2.8824    3.3756 C.ar      1 <0>        -0.1698
     10 C8         -3.3425   -4.0750    3.9537 C.ar      1 <0>        -0.0620
     11 C9         -2.3822   -4.9262    4.4806 C.ar      1 <0>        -0.0020
     12 C10        -1.0227   -4.5739    4.4255 C.ar      1 <0>         0.1057
     13 C11        -0.6479   -3.3640    3.8327 C.ar      1 <0>        -0.1677
     14 N3         -0.3227   -5.5792    5.0075 N.2       1 <0>        -0.5135
     15 C12        -1.1493   -6.5163    5.4127 C.2       1 <0>         0.3756
     16 N4         -2.4369   -6.1596    5.1098 N.pl3     1 <0>        -0.5827
     17 H1         -3.2370   -6.6739    5.3005 H         1 <0>         0.4310
     18 C13        -0.7520   -7.7615    6.0904 C.2       1 <0>        -0.2494
     19 C14         0.5797   -7.9671    6.4582 C.2       1 <0>         0.3543
     20 C15         0.9254   -9.2250    7.1315 C.ar      1 <0>        -0.1408
     21 C16        -0.0884  -10.1680    7.3791 C.ar      1 <0>         0.2211
     22 C17         0.2308  -11.3618    8.0164 C.ar      1 <0>        -0.1603
     23 C18         1.5316  -11.6122    8.3993 C.ar      1 <0>        -0.0413
     24 C19         2.5327  -10.6837    8.1561 C.ar      1 <0>        -0.1405
     25 C20         2.2403   -9.4933    7.5253 C.ar      1 <0>         0.0294
     26 Cl1         3.4964   -8.3340    7.2223 Cl        1 <0>        -0.0346
     27 N5         -1.3865   -9.9037    6.9895 N.am      1 <0>        -0.6315
     28 H2         -2.0768  -10.5620    7.1659 H         1 <0>         0.4215
     29 C21        -1.7181   -8.7545    6.3783 C.2       1 <0>         0.5721
     30 O1         -2.8787   -8.5648    6.0585 O.2       1 <0>        -0.5513
     31 N6          1.5391   -7.0191    6.1967 N.pl3     1 <0>        -0.8261
     32 H3         -0.6074    1.7545   -0.8796 H         1 <0>         0.0701
     33 H4          1.0766    1.4132   -0.4151 H         1 <0>         0.0698
     34 H5          0.1125    0.1682   -1.2449 H         1 <0>         0.0253
     35 H6          0.5882   -1.3851    0.7127 H         1 <0>         0.0383
     36 H7          1.5707   -0.0437    1.3493 H         1 <0>         0.0848
     37 H8          0.7909   -1.6543    3.1338 H         1 <0>         0.0878
     38 H9          0.2386    0.0201    3.4015 H         1 <0>         0.0689
     39 H10        -3.1865   -0.9953    1.9790 H         1 <0>         0.0858
     40 H11        -2.3859    0.4550    2.6395 H         1 <0>         0.0690
     41 H12        -2.3974    0.6138    0.1973 H         1 <0>         0.0849
     42 H13        -1.6798   -1.0093    0.0542 H         1 <0>         0.0383
     43 H14        -3.7125   -2.2216    2.9662 H         1 <0>         0.1298
     44 H15        -4.3870   -4.3463    3.9966 H         1 <0>         0.1225
     45 H16         0.3942   -3.0852    3.7813 H         1 <0>         0.1266
     46 H17        -0.5400  -12.0927    8.2117 H         1 <0>         0.1462
     47 H18         1.7734  -12.5412    8.8943 H         1 <0>         0.1475
     48 H19         3.5467  -10.8945    8.4621 H         1 <0>         0.1462
     49 H20         1.3535   -6.0820    6.3647 H         1 <0>         0.4186
     50 H21         2.4021   -7.2869    5.8440 H         1 <0>         0.4059
@<TRIPOS>BOND
     1    1    2 1
     2    1   32 1
     3    1   33 1
     4    1   34 1
     5    2    7 1
     6    2    3 1
     7    3    4 1
     8    3   35 1
     9    3   36 1
    10    4    5 1
    11    4   37 1
    12    4   38 1
    13    5    6 1
    14    5    8 1
    15    6    7 1
    16    6   39 1
    17    6   40 1
    18    7   41 1
    19    7   42 1
    20    8   13 ar
    21    8    9 ar
    22    9   10 ar
    23    9   43 1
    24   10   11 ar
    25   10   44 1
    26   11   16 1
    27   11   12 ar
    28   12   13 ar
    29   12   14 1
    30   13   45 1
    31   14   15 2
    32   15   16 1
    33   15   18 1
    34   16   17 1
    35   18   29 1
    36   18   19 2
    37   19   20 1
    38   19   31 1
    39   20   25 ar
    40   20   21 ar
    41   21   22 ar
    42   21   27 1
    43   22   23 ar
    44   22   46 1
    45   23   24 ar
    46   23   47 1
    47   24   25 ar
    48   24   48 1
    49   25   26 1
    50   27   28 1
    51   27   29 am
    52   29   30 2
    53   31   49 1
    54   31   50 1
@<TRIPOS>MOLECULE
CHEMBL495762__2
   51    55     0     0     0
SMALL
USER_CHARGES

@<TRIPOS>ATOM
      1 C1         -0.4649    2.9476    2.8236 C.3       1 <0>        -0.0468
      2 N1         -0.6195    1.5332    2.4583 N.4       1 <0>        -0.3836
      3 C2         -2.0110    1.1211    2.6820 C.3       1 <0>        -0.0235
      4 C3         -2.2008   -0.3191    2.1945 C.3       1 <0>         0.1012
      5 N2         -1.2012   -1.1712    2.8570 N.pl3     1 <0>        -0.6445
      6 C4          0.2062   -0.7443    2.8221 C.3       1 <0>         0.1005
      7 C5          0.2823    0.7160    3.2799 C.3       1 <0>        -0.0228
      8 C6         -1.5784   -2.3540    3.5025 C.ar      1 <0>         0.1901
      9 C7         -2.9283   -2.6792    3.6197 C.ar      1 <0>        -0.1699
     10 C8         -3.3131   -3.8416    4.2534 C.ar      1 <0>        -0.0552
     11 C9         -2.3534   -4.6948    4.7782 C.ar      1 <0>         0.0110
     12 C10        -0.9894   -4.3754    4.6644 C.ar      1 <0>         0.1039
     13 C11        -0.6098   -3.1962    4.0155 C.ar      1 <0>        -0.1479
     14 N3         -0.2913   -5.3747    5.2586 N.2       1 <0>        -0.5161
     15 C12        -1.1230   -6.2779    5.7255 C.2       1 <0>         0.3954
     16 N4         -2.4125   -5.9034    5.4535 N.pl3     1 <0>        -0.5808
     17 H1         -3.2162   -6.3924    5.6898 H         1 <0>         0.4360
     18 C13        -0.7291   -7.5067    6.4343 C.2       1 <0>        -0.2620
     19 C14         0.6099   -7.7289    6.7640 C.2       1 <0>         0.3660
     20 C15         0.9518   -8.9695    7.4707 C.ar      1 <0>        -0.1466
     21 C16        -0.0726   -9.8800    7.7867 C.ar      1 <0>         0.2233
     22 C17         0.2430  -11.0572    8.4559 C.ar      1 <0>        -0.1589
     23 C18         1.5507  -11.3230    8.8035 C.ar      1 <0>        -0.0360
     24 C19         2.5622  -10.4264    8.4929 C.ar      1 <0>        -0.1378
     25 C20         2.2735   -9.2530    7.8294 C.ar      1 <0>         0.0301
     26 Cl1         3.5428   -8.1338    7.4420 Cl        1 <0>        -0.0351
     27 N5         -1.3775   -9.6007    7.4318 N.am      1 <0>        -0.6301
     28 H2         -2.0751  -10.2366    7.6553 H         1 <0>         0.4238
     29 C21        -1.7055   -8.4668    6.7907 C.2       1 <0>         0.5740
     30 O1         -2.8722   -8.2627    6.5036 O.2       1 <0>        -0.5532
     31 N6          1.5796   -6.8127    6.4359 N.pl3     1 <0>        -0.8264
     32 H3          0.5658    3.2570    2.6504 H         1 <0>         0.1244
     33 H4         -1.1339    3.5554    2.2143 H         1 <0>         0.1245
     34 H5         -0.7119    3.0800    3.8769 H         1 <0>         0.1212
     35 H6         -2.2403    1.1778    3.7461 H         1 <0>         0.1322
     36 H7         -2.6791    1.7825    2.1303 H         1 <0>         0.1398
     37 H8         -3.2028   -0.6634    2.4503 H         1 <0>         0.1266
     38 H9         -2.0602   -0.3617    1.1144 H         1 <0>         0.0865
     39 H10         0.7954   -1.3696    3.4928 H         1 <0>         0.1270
     40 H11         0.5897   -0.8298    1.8054 H         1 <0>         0.0862
     41 H12         1.3041    1.0789    3.1689 H         1 <0>         0.1397
     42 H13        -0.0164    0.7849    4.3259 H         1 <0>         0.1321
     43 H14        -3.6775   -2.0167    3.2121 H         1 <0>         0.1292
     44 H15        -4.3610   -4.0875    4.3416 H         1 <0>         0.1288
     45 H16         0.4356   -2.9428    3.9187 H         1 <0>         0.1272
     46 H17        -0.5359  -11.7631    8.7036 H         1 <0>         0.1486
     47 H18         1.7896  -12.2389    9.3235 H         1 <0>         0.1505
     48 H19         3.5816  -10.6489    8.7719 H         1 <0>         0.1484
     49 H20         1.4195   -5.8662    6.5751 H         1 <0>         0.4169
     50 H21         2.4243   -7.1123    6.0651 H         1 <0>         0.4077
     51 H22        -0.3877    1.4114    1.4839 H         1 <0>         0.4245
@<TRIPOS>BOND
     1    1    2 1
     2    1   32 1
     3    1   33 1
     4    1   34 1
     5    2    7 1
     6    2    3 1
     7    2   51 1
     8    3    4 1
     9    3   35 1
    10    3   36 1
    11    4    5 1
    12    4   37 1
    13    4   38 1
    14    5    6 1
    15    5    8 1
    16    6    7 1
    17    6   39 1
    18    6   40 1
    19    7   41 1
    20    7   42 1
    21    8   13 ar
    22    8    9 ar
    23    9   10 ar
    24    9   43 1
    25   10   11 ar
    26   10   44 1
    27   11   16 1
    28   11   12 ar
    29   12   13 ar
    30   12   14 1
    31   13   45 1
    32   14   15 2
    33   15   16 1
    34   15   18 1
    35   16   17 1
    36   18   29 1
    37   18   19 2
    38   19   20 1
    39   19   31 1
    40   20   25 ar
    41   20   21 ar
    42   21   22 ar
    43   21   27 1
    44   22   23 ar
    45   22   46 1
    46   23   24 ar
    47   23   47 1
    48   24   25 ar
    49   24   48 1
    50   25   26 1
    51   27   28 1
    52   27   29 am
    53   29   30 2
    54   31   49 1
    55   31   50 1
@<TRIPOS>MOLECULE
CHEMBL190991
   74    77     0     0     0
SMALL
USER_CHARGES

@<TRIPOS>ATOM
      1 C1         -0.0187    1.5258    0.0104 C.3       1 <0>        -0.1656
      2 C2          0.0021   -0.0041    0.0020 C.3       1 <0>         0.1879
      3 C3          0.7421   -0.5109    1.2415 C.3       1 <0>        -0.1656
      4 C4         -1.4333   -0.5336    0.0129 C.3       1 <0>        -0.1559
      5 N1          0.6878   -0.4765   -1.2033 N.am      1 <0>        -0.7365
      6 C5          1.9715   -0.1323   -1.4270 C.2       1 <0>         0.6938
      7 O1          2.5604    0.5703   -0.6286 O.2       1 <0>        -0.5138
      8 N2          2.6023   -0.5669   -2.5359 N.am      1 <0>        -0.6663
      9 C6          3.9247   -0.2123   -2.7663 C.ar      1 <0>         0.4503
     10 C7          4.5693   -0.6712   -3.9356 C.ar      1 <0>        -0.1604
     11 C8          5.8881   -0.3212   -4.1717 C.ar      1 <0>         0.0291
     12 C9          6.5368    0.4880   -3.2221 C.ar      1 <0>        -0.2393
     13 C10         7.8708    0.8895   -3.3824 C.ar      1 <0>         0.2206
     14 N3          8.4455    1.6459   -2.4759 N.ar      1 <0>        -0.5386
     15 C11         7.8088    2.0618   -1.3834 C.ar      1 <0>         0.4102
     16 C12         6.4944    1.7182   -1.1375 C.ar      1 <0>        -0.2404
     17 C13         5.8226    0.9111   -2.0693 C.ar      1 <0>         0.2386
     18 N4          4.5491    0.5491   -1.8926 N.ar      1 <0>        -0.4810
     19 N5          8.4837    2.8609   -0.4679 N.pl3     1 <0>        -0.7201
     20 C14         7.7998    3.3283    0.7404 C.3       1 <0>         0.1304
     21 C15         8.7592    4.1828    1.5712 C.3       1 <0>        -0.1306
     22 C16         8.0449    4.6711    2.8331 C.3       1 <0>         0.0636
     23 O2          8.9410    5.4691    3.6091 O.3       1 <0>        -0.3146
     24 C17         8.4599    5.9845    4.7709 C.ar      1 <0>         0.1290
     25 C18         7.1539    5.7225    5.1590 C.ar      1 <0>        -0.2093
     26 C19         6.6674    6.2471    6.3407 C.ar      1 <0>        -0.0800
     27 C20         7.4806    7.0330    7.1362 C.ar      1 <0>        -0.1585
     28 C21         8.7823    7.2959    6.7514 C.ar      1 <0>        -0.0807
     29 C22         9.2756    6.7686    5.5737 C.ar      1 <0>        -0.1528
     30 C23         3.8387   -1.5231   -4.9046 C.ar      1 <0>         0.0416
     31 C24         3.1397   -2.6438   -4.4607 C.ar      1 <0>        -0.1989
     32 C25         2.4582   -3.4378   -5.3688 C.ar      1 <0>         0.1768
     33 C26         2.4715   -3.1183   -6.7187 C.ar      1 <0>        -0.2975
     34 C27         3.1664   -2.0032   -7.1640 C.ar      1 <0>         0.1766
     35 C28         3.8449   -1.2016   -6.2604 C.ar      1 <0>        -0.1739
     36 O3          3.1769   -1.6937   -8.4872 O.3       1 <0>        -0.3103
     37 C29         2.4514   -2.5601   -9.3619 C.3       1 <0>         0.0251
     38 O4          1.7762   -4.5310   -4.9368 O.3       1 <0>        -0.3111
     39 C30         1.0960   -5.3046   -5.9272 C.3       1 <0>         0.0250
     40 H1          1.0039    1.9031    0.0027 H         1 <0>         0.0812
     41 H2         -0.5459    1.8868   -0.8726 H         1 <0>         0.0525
     42 H3         -0.5289    1.8773    0.9072 H         1 <0>         0.0633
     43 H4          0.2319   -0.1594    2.1383 H         1 <0>         0.0632
     44 H5          0.7568   -1.6008    1.2356 H         1 <0>         0.0529
     45 H6          1.7647   -0.1336    1.2338 H         1 <0>         0.0812
     46 H7         -1.9605   -0.1726   -0.8702 H         1 <0>         0.0620
     47 H8         -1.4185   -1.6235    0.0069 H         1 <0>         0.0624
     48 H9         -1.9435   -0.1821    0.9097 H         1 <0>         0.0762
     49 H10         0.2179   -1.0371   -1.8404 H         1 <0>         0.3943
     50 H11         2.1325   -1.1275   -3.1729 H         1 <0>         0.4150
     51 H12         6.4032   -0.6599   -5.0584 H         1 <0>         0.1511
     52 H13         8.4269    0.5757   -4.2534 H         1 <0>         0.1693
     53 H14         5.9925    2.0642   -0.2459 H         1 <0>         0.1417
     54 H15         9.4075    3.1089   -0.6290 H         1 <0>         0.4075
     55 H16         6.9323    3.9254    0.4590 H         1 <0>         0.0709
     56 H17         7.4748    2.4704    1.3290 H         1 <0>         0.0709
     57 H18         9.6266    3.5858    1.8527 H         1 <0>         0.0839
     58 H19         9.0841    5.0408    0.9827 H         1 <0>         0.0839
     59 H20         7.1775    5.2681    2.5517 H         1 <0>         0.0675
     60 H21         7.7200    3.8131    3.4217 H         1 <0>         0.0675
     61 H22         6.5181    5.1093    4.5376 H         1 <0>         0.1280
     62 H23         5.6508    6.0435    6.6433 H         1 <0>         0.1253
     63 H24         7.0982    7.4425    8.0595 H         1 <0>         0.1242
     64 H25         9.4154    7.9104    7.3743 H         1 <0>         0.1297
     65 H26        10.2938    6.9706    5.2757 H         1 <0>         0.1304
     66 H27         3.1296   -2.8935   -3.4101 H         1 <0>         0.1349
     67 H28         1.9400   -3.7392   -7.4246 H         1 <0>         0.1373
     68 H29         4.3820   -0.3311   -6.6071 H         1 <0>         0.1380
     69 H30         2.5417   -2.2003  -10.3868 H         1 <0>         0.1046
     70 H31         2.8585   -3.5690   -9.2938 H         1 <0>         0.0570
     71 H32         1.4007   -2.5720   -9.0723 H         1 <0>         0.0566
     72 H33         0.5935   -6.1456   -5.4494 H         1 <0>         0.1044
     73 H34         0.3590   -4.6805   -6.4327 H         1 <0>         0.0570
     74 H35         1.8166   -5.6777   -6.6549 H         1 <0>         0.0571
@<TRIPOS>BOND
     1    1    2 1
     2    1   40 1
     3    1   41 1
     4    1   42 1
     5    2    3 1
     6    2    4 1
     7    2    5 1
     8    3   43 1
     9    3   44 1
    10    3   45 1
    11    4   46 1
    12    4   47 1
    13    4   48 1
    14    5    6 am
    15    5   49 1
    16    6    7 2
    17    6    8 am
    18    8    9 1
    19    8   50 1
    20    9   18 ar
    21    9   10 ar
    22   10   11 ar
    23   10   30 1
    24   11   12 ar
    25   11   51 1
    26   12   17 ar
    27   12   13 ar
    28   13   14 ar
    29   13   52 1
    30   14   15 ar
    31   15   16 ar
    32   15   19 1
    33   16   17 ar
    34   16   53 1
    35   17   18 ar
    36   19   20 1
    37   19   54 1
    38   20   21 1
    39   20   55 1
    40   20   56 1
    41   21   22 1
    42   21   57 1
    43   21   58 1
    44   22   23 1
    45   22   59 1
    46   22   60 1
    47   23   24 1
    48   24   29 ar
    49   24   25 ar
    50   25   26 ar
    51   25   61 1
    52   26   27 ar
    53   26   62 1
    54   27   28 ar
    55   27   63 1
    56   28   29 ar
    57   28   64 1
    58   29   65 1
    59   30   35 ar
    60   30   31 ar
    61   31   32 ar
    62   31   66 1
    63   32   33 ar
    64   32   38 1
    65   33   34 ar
    66   33   67 1
    67   34   35 ar
    68   34   36 1
    69   35   68 1
    70   36   37 1
    71   37   69 1
    72   37   70 1
    73   37   71 1
    74   38   39 1
    75   39   72 1
    76   39   73 1
    77   39   74 1
@<TRIPOS>MOLECULE
CHEMBL495961
   54    58     0     0     0
SMALL
USER_CHARGES

@<TRIPOS>ATOM
      1 C1         -0.1211    1.5038    0.0369 C.3       1 <0>        -0.0457
      2 N1         -0.0687    0.0358    0.0249 N.4       1 <0>        -0.3882
      3 C2         -1.4353   -0.5027    0.0215 C.3       1 <0>        -0.0021
      4 C3         -1.3812   -2.0317   -0.0099 C.3       1 <0>         0.0245
      5 N2         -0.6477   -2.5174    1.1675 N.3       1 <0>        -0.5344
      6 C4          0.7146   -1.9666    1.1976 C.3       1 <0>         0.0197
      7 C5          0.6432   -0.4382    1.2191 C.3       1 <0>        -0.0025
      8 C6         -0.6228   -3.9857    1.2034 C.3       1 <0>         0.1050
      9 C7         -0.0849   -4.4467    2.5335 C.ar      1 <0>        -0.1046
     10 C8          1.2792   -4.6437    2.6934 C.ar      1 <0>        -0.1134
     11 C9          1.7875   -5.0654    3.9044 C.ar      1 <0>        -0.0993
     12 C10         0.9307   -5.2941    4.9711 C.ar      1 <0>         0.0486
     13 C11        -0.4522   -5.0958    4.8151 C.ar      1 <0>         0.0677
     14 C12        -0.9500   -4.6634    3.5817 C.ar      1 <0>        -0.0466
     15 N3         -1.0370   -5.3907    6.0024 N.2       1 <0>        -0.5386
     16 C13        -0.1185   -5.7530    6.8686 C.2       1 <0>         0.4067
     17 N4          1.1171   -5.7095    6.2775 N.pl3     1 <0>        -0.5817
     18 H1          1.9639   -5.9288    6.6966 H         1 <0>         0.4374
     19 C14        -0.3772   -6.1458    8.2639 C.2       1 <0>        -0.3078
     20 C15        -1.6621   -6.0321    8.7987 C.2       1 <0>         0.3765
     21 C16        -1.8689   -6.4373   10.1951 C.ar      1 <0>        -0.1558
     22 C17        -3.1299   -6.3493   10.7913 C.ar      1 <0>        -0.0488
     23 C18        -3.2930   -6.7339   12.0925 C.ar      1 <0>        -0.1482
     24 C19        -2.2162   -7.2107   12.8266 C.ar      1 <0>        -0.0452
     25 C20        -0.9640   -7.3052   12.2580 C.ar      1 <0>        -0.1649
     26 C21        -0.7747   -6.9202   10.9346 C.ar      1 <0>         0.2176
     27 N5          0.4711   -7.0084   10.3464 N.am      1 <0>        -0.6363
     28 H2          1.2177   -7.3433   10.8674 H         1 <0>         0.4204
     29 C22         0.6737   -6.6461    9.0689 C.2       1 <0>         0.5803
     30 O1          1.7910   -6.7468    8.5926 O.2       1 <0>        -0.5627
     31 N6         -2.7032   -5.5543    8.0403 N.pl3     1 <0>        -0.8025
     32 H3          0.8929    1.9036    0.0381 H         1 <0>         0.1236
     33 H4         -0.6494    1.8557   -0.8492 H         1 <0>         0.1238
     34 H5         -0.6458    1.8414    0.9307 H         1 <0>         0.1226
     35 H6         -1.9567   -0.1760    0.9213 H         1 <0>         0.1371
     36 H7         -1.9666   -0.1397   -0.8583 H         1 <0>         0.1351
     37 H8         -2.3950   -2.4317    0.0026 H         1 <0>         0.1239
     38 H9         -0.8718   -2.3590   -0.9163 H         1 <0>         0.0606
     39 H10         1.2297   -2.3192    2.0911 H         1 <0>         0.1283
     40 H11         1.2585   -2.2929    0.3112 H         1 <0>         0.0604
     41 H12         1.6528   -0.0274    1.2272 H         1 <0>         0.1345
     42 H13         0.1111   -0.1118    2.1127 H         1 <0>         0.1368
     43 H14        -1.6339   -4.3697    1.0675 H         1 <0>         0.0963
     44 H15         0.0177   -4.3579    0.4037 H         1 <0>         0.0563
     45 H16         1.9475   -4.4660    1.8639 H         1 <0>         0.1237
     46 H17         2.8503   -5.2174    4.0217 H         1 <0>         0.1252
     47 H18        -2.0102   -4.5040    3.4511 H         1 <0>         0.1286
     48 H19        -3.9721   -5.9785   10.2260 H         1 <0>         0.1331
     49 H20        -4.2675   -6.6660   12.5532 H         1 <0>         0.1371
     50 H21        -2.3606   -7.5106   13.8541 H         1 <0>         0.1396
     51 H22        -0.1324   -7.6769   12.8382 H         1 <0>         0.1419
     52 H23        -2.5701   -5.3651    7.0983 H         1 <0>         0.4315
     53 H24        -3.5714   -5.4063    8.4468 H         1 <0>         0.4028
     54 H25         0.4175   -0.2765   -0.8022 H         1 <0>         0.4221
@<TRIPOS>BOND
     1    1    2 1
     2    1   32 1
     3    1   33 1
     4    1   34 1
     5    2    7 1
     6    2    3 1
     7    2   54 1
     8    3    4 1
     9    3   35 1
    10    3   36 1
    11    4    5 1
    12    4   37 1
    13    4   38 1
    14    5    6 1
    15    5    8 1
    16    6    7 1
    17    6   39 1
    18    6   40 1
    19    7   41 1
    20    7   42 1
    21    8    9 1
    22    8   43 1
    23    8   44 1
    24    9   14 ar
    25    9   10 ar
    26   10   11 ar
    27   10   45 1
    28   11   12 ar
    29   11   46 1
    30   12   17 1
    31   12   13 ar
    32   13   14 ar
    33   13   15 1
    34   14   47 1
    35   15   16 2
    36   16   17 1
    37   16   19 1
    38   17   18 1
    39   19   29 1
    40   19   20 2
    41   20   21 1
    42   20   31 1
    43   21   26 ar
    44   21   22 ar
    45   22   23 ar
    46   22   48 1
    47   23   24 ar
    48   23   49 1
    49   24   25 ar
    50   24   50 1
    51   25   26 ar
    52   25   51 1
    53   26   27 1
    54   27   28 1
    55   27   29 am
    56   29   30 2
    57   31   52 1
    58   31   53 1
@<TRIPOS>MOLECULE
CHEMBL495961__1
   54    58     0     0     0
SMALL
USER_CHARGES

@<TRIPOS>ATOM
      1 C1         -0.1197    1.5021    0.0431 C.3       1 <0>         0.0196
      2 N1         -0.0682    0.0340    0.0300 N.3       1 <0>        -0.5432
      3 C2         -1.4182   -0.5396   -0.0627 C.3       1 <0>         0.0244
      4 C3         -1.3172   -2.0649   -0.1337 C.3       1 <0>        -0.0027
      5 N2         -0.6346   -2.5670    1.0660 N.4       1 <0>        -0.3855
      6 C4          0.7208   -2.0046    1.1317 C.3       1 <0>        -0.0066
      7 C5          0.6368   -0.4789    1.2132 C.3       1 <0>         0.0257
      8 C6         -0.5540   -4.0325    1.0060 C.3       1 <0>         0.0522
      9 C7          0.0350   -4.5562    2.2905 C.ar      1 <0>        -0.1661
     10 C8          1.4092   -4.7099    2.4053 C.ar      1 <0>        -0.1041
     11 C9          1.9640   -5.1880    3.5741 C.ar      1 <0>        -0.0893
     12 C10         1.1443   -5.5176    4.6435 C.ar      1 <0>         0.0651
     13 C11        -0.2486   -5.3636    4.5332 C.ar      1 <0>         0.0682
     14 C12        -0.7940   -4.8730    3.3424 C.ar      1 <0>        -0.0440
     15 N3         -0.7911   -5.7564    5.7123 N.2       1 <0>        -0.5391
     16 C13         0.1624   -6.1374    6.5314 C.2       1 <0>         0.4207
     17 N4          1.3798   -6.0080    5.9155 N.pl3     1 <0>        -0.5784
     18 H1          2.2448   -6.2206    6.2996 H         1 <0>         0.4419
     19 C14        -0.0452   -6.6282    7.9039 C.2       1 <0>        -0.3144
     20 C15        -1.3192   -6.5990    8.4749 C.2       1 <0>         0.3835
     21 C16        -1.4745   -7.1004    9.8466 C.ar      1 <0>        -0.1590
     22 C17        -2.7221   -7.0998   10.4766 C.ar      1 <0>        -0.0480
     23 C18        -2.8370   -7.5729   11.7536 C.ar      1 <0>        -0.1469
     24 C19        -1.7245   -8.0534   12.4298 C.ar      1 <0>        -0.0422
     25 C20        -0.4848   -8.0625   11.8271 C.ar      1 <0>        -0.1644
     26 C21        -0.3443   -7.5867   10.5273 C.ar      1 <0>         0.2191
     27 N5          0.8883   -7.5886    9.9056 N.am      1 <0>        -0.6354
     28 H2          1.6601   -7.9268   10.3862 H         1 <0>         0.4219
     29 C22         1.0441   -7.1377    8.6499 C.2       1 <0>         0.5817
     30 O1          2.1516   -7.1642    8.1421 O.2       1 <0>        -0.5628
     31 N6         -2.3967   -6.1146    7.7737 N.pl3     1 <0>        -0.8015
     32 H3          0.8946    1.9012    0.0460 H         1 <0>         0.0837
     33 H4         -0.6466    1.8551   -0.8433 H         1 <0>         0.0834
     34 H5         -0.6453    1.8392    0.9365 H         1 <0>         0.0386
     35 H6         -1.9959   -0.2539    0.8163 H         1 <0>         0.0594
     36 H7         -1.9114   -0.1656   -0.9599 H         1 <0>         0.1231
     37 H8         -2.3181   -2.4931   -0.1882 H         1 <0>         0.1358
     38 H9         -0.7511   -2.3507   -1.0202 H         1 <0>         0.1382
     39 H10         1.2308   -2.3882    2.0154 H         1 <0>         0.1377
     40 H11         1.2765   -2.2907    0.2387 H         1 <0>         0.1373
     41 H12         1.6428   -0.0605    1.2469 H         1 <0>         0.1221
     42 H13         0.0930   -0.1921    2.1133 H         1 <0>         0.0588
     43 H14        -1.5532   -4.4460    0.8693 H         1 <0>         0.1365
     44 H15         0.0790   -4.3276    0.1692 H         1 <0>         0.1375
     45 H16         2.0488   -4.4537    1.5736 H         1 <0>         0.1367
     46 H17         3.0344   -5.3058    3.6564 H         1 <0>         0.1351
     47 H18        -1.8624   -4.7470    3.2473 H         1 <0>         0.1353
     48 H19        -3.5919   -6.7267    9.9564 H         1 <0>         0.1335
     49 H20        -3.8010   -7.5724   12.2404 H         1 <0>         0.1383
     50 H21        -1.8309   -8.4236   13.4387 H         1 <0>         0.1410
     51 H22         0.3749   -8.4379   12.3622 H         1 <0>         0.1432
     52 H23        -2.2952   -5.8605    6.8431 H         1 <0>         0.4303
     53 H24        -3.2590   -6.0267    8.2092 H         1 <0>         0.4048
     54 H25        -1.1526   -2.2923    1.8872 H         1 <0>         0.4192
@<TRIPOS>BOND
     1    1    2 1
     2    1   32 1
     3    1   33 1
     4    1   34 1
     5    2    7 1
     6    2    3 1
     7    3    4 1
     8    3   35 1
     9    3   36 1
    10    4    5 1
    11    4   37 1
    12    4   38 1
    13    5    6 1
    14    5    8 1
    15    5   54 1
    16    6    7 1
    17    6   39 1
    18    6   40 1
    19    7   41 1
    20    7   42 1
    21    8    9 1
    22    8   43 1
    23    8   44 1
    24    9   14 ar
    25    9   10 ar
    26   10   11 ar
    27   10   45 1
    28   11   12 ar
    29   11   46 1
    30   12   17 1
    31   12   13 ar
    32   13   14 ar
    33   13   15 1
    34   14   47 1
    35   15   16 2
    36   16   17 1
    37   16   19 1
    38   17   18 1
    39   19   29 1
    40   19   20 2
    41   20   21 1
    42   20   31 1
    43   21   26 ar
    44   21   22 ar
    45   22   23 ar
    46   22   48 1
    47   23   24 ar
    48   23   49 1
    49   24   25 ar
    50   24   50 1
    51   25   26 ar
    52   25   51 1
    53   26   27 1
    54   27   28 1
    55   27   29 am
    56   29   30 2
    57   31   52 1
    58   31   53 1
@<TRIPOS>MOLECULE
CHEMBL291759
   80    84     0     0     0
SMALL
USER_CHARGES

@<TRIPOS>ATOM
      1 C1         -0.3757    0.9642   -0.8479 C.3       1 <0>        -0.1560
      2 C2         -0.1743   -0.5494   -0.7506 C.3       1 <0>         0.0632
      3 O1          0.3823   -0.8749    0.5246 O.3       1 <0>        -0.3500
      4 C3          0.6219   -2.1723    0.7718 C.2       1 <0>         0.4615
      5 O2          0.3675   -3.0041   -0.0669 O.2       1 <0>        -0.4929
      6 C4          1.2083   -2.5915    2.0952 C.3       1 <0>         0.0622
      7 N1          1.3732   -4.0511    2.1174 N.3       1 <0>        -0.5281
      8 C5          0.0694   -4.7289    2.0882 C.3       1 <0>         0.0165
      9 C6          0.2859   -6.2433    2.0524 C.3       1 <0>         0.0019
     10 N2          1.0460   -6.6577    3.2390 N.4       1 <0>        -0.3877
     11 C7          2.3551   -5.9915    3.2412 C.3       1 <0>        -0.0050
     12 C8          2.1558   -4.4750    3.2870 C.3       1 <0>         0.0287
     13 C9          1.2380   -8.1139    3.2133 C.3       1 <0>        -0.0112
     14 C10         1.9196   -8.5613    4.5079 C.3       1 <0>        -0.1444
     15 C11         2.1196  -10.0780    4.4811 C.3       1 <0>        -0.0439
     16 C12         2.7909  -10.5187    5.7563 C.2       1 <0>        -0.1057
     17 C13         4.1596  -10.6151    5.9803 C.2       1 <0>        -0.1664
     18 C14         4.3506  -11.0498    7.2565 C.2       1 <0>         0.0752
     19 N3          3.1446  -11.2281    7.8427 N.pl3     1 <0>        -0.4996
     20 H1          2.9965  -11.5318    8.7519 H         1 <0>         0.4222
     21 C15         2.1604  -10.9000    6.9328 C.2       1 <0>        -0.0084
     22 C16         0.7688  -10.9462    7.1563 C.2       1 <0>         0.0672
     23 C17         0.2340  -11.9133    7.9858 C.2       1 <0>        -0.1896
     24 C18        -1.1672  -12.0288    8.4470 C.ar      1 <0>        -0.1233
     25 C19        -2.3116  -11.2706    8.2208 C.ar      1 <0>         0.0363
     26 C20        -3.5049  -11.6415    8.8063 C.ar      1 <0>        -0.6994
     27 C21        -3.5620  -12.7638    9.6161 C.ar      1 <0>         0.0167
     28 C22        -2.4328  -13.5226    9.8469 C.ar      1 <0>        -0.1514
     29 C23        -1.2211  -13.1653    9.2654 C.ar      1 <0>         0.2001
     30 N4          0.0418  -13.7408    9.3302 N.am      1 <0>        -0.6498
     31 C24         0.9318  -13.0528    8.5951 C.2       1 <0>         0.5569
     32 O3          2.1117  -13.3248    8.4604 O.2       1 <0>        -0.4997
     33 S1         -4.9579  -10.6856    8.5239 S.o2      1 <0>         2.7004
     34 O4         -5.8250  -10.9303    9.6228 O.2       1 <0>        -0.9481
     35 O5         -4.5227   -9.3791    8.1731 O.2       1 <0>        -0.9614
     36 N5         -5.7033  -11.3118    7.1843 N.pl3     1 <0>        -1.1196
     37 C25        -6.2460  -12.6722    7.2168 C.3       1 <0>         0.0797
     38 C26         5.7107  -11.2820    7.8709 C.3       1 <0>        -0.0616
     39 C27         6.7453  -11.3592    6.7421 C.3       1 <0>        -0.1147
     40 C28         6.5777  -10.1557    5.8107 C.3       1 <0>        -0.1210
     41 C29         5.2756  -10.3036    5.0141 C.3       1 <0>        -0.0443
     42 H2          0.5846    1.4666   -0.7317 H         1 <0>         0.0696
     43 H3         -0.8003    1.2124   -1.8206 H         1 <0>         0.0853
     44 H4         -1.0548    1.2917   -0.0607 H         1 <0>         0.0686
     45 H5         -1.1346   -1.0519   -0.8668 H         1 <0>         0.0703
     46 H6          0.5048   -0.8770   -1.5378 H         1 <0>         0.0721
     47 H7          2.1789   -2.1141    2.2301 H         1 <0>         0.1317
     48 H8          0.5396   -2.2891    2.9010 H         1 <0>         0.0913
     49 H9         -0.4984   -4.4637    2.9801 H         1 <0>         0.0615
     50 H10        -0.4817   -4.4191    1.2003 H         1 <0>         0.1361
     51 H11        -0.6800   -6.7483    2.0450 H         1 <0>         0.1373
     52 H12         0.8419   -6.5096    1.1535 H         1 <0>         0.1401
     53 H13         2.9233   -6.3098    4.1153 H         1 <0>         0.1402
     54 H14         2.9005   -6.2591    2.3362 H         1 <0>         0.1400
     55 H15         3.1269   -3.9800    3.2737 H         1 <0>         0.1274
     56 H16         1.6224   -4.2056    4.1986 H         1 <0>         0.0659
     57 H17         0.2699   -8.6065    3.1233 H         1 <0>         0.1326
     58 H18         1.8631   -8.3830    2.3618 H         1 <0>         0.1328
     59 H19         2.8878   -8.0687    4.5979 H         1 <0>         0.0905
     60 H20         1.2945   -8.2922    5.3594 H         1 <0>         0.0867
     61 H21         1.1514  -10.5706    4.3912 H         1 <0>         0.0787
     62 H22         2.7446  -10.3471    3.6297 H         1 <0>         0.0856
     63 H23         0.1211  -10.2256    6.6793 H         1 <0>         0.1507
     64 H24        -2.2661  -10.3952    7.5898 H         1 <0>         0.1432
     65 H25        -4.4993  -13.0475   10.0716 H         1 <0>         0.1532
     66 H26        -2.4900  -14.3956   10.4802 H         1 <0>         0.1433
     67 H27         0.2533  -14.5395    9.8384 H         1 <0>         0.4248
     68 H28        -5.7805  -10.7780    6.3782 H         1 <0>         0.4192
     69 H29        -7.0040  -12.7424    7.9969 H         1 <0>         0.0728
     70 H30        -6.6950  -12.9074    6.2518 H         1 <0>         0.0863
     71 H31        -5.4429  -13.3789    7.4258 H         1 <0>         0.0610
     72 H32         5.9574  -10.4567    8.5389 H         1 <0>         0.0822
     73 H33         5.7063  -12.2181    8.4293 H         1 <0>         0.0801
     74 H34         7.7486  -11.3519    7.1679 H         1 <0>         0.0751
     75 H35         6.5977  -12.2793    6.1766 H         1 <0>         0.0694
     76 H36         6.5398   -9.2410    6.4022 H         1 <0>         0.0642
     77 H37         7.4214  -10.1087    5.1223 H         1 <0>         0.0697
     78 H38         5.3758  -11.1162    4.2946 H         1 <0>         0.0706
     79 H39         5.0581   -9.3730    4.4898 H         1 <0>         0.0644
     80 H40         0.5366   -6.4006    4.0711 H         1 <0>         0.4202
@<TRIPOS>BOND
     1    1    2 1
     2    1   42 1
     3    1   43 1
     4    1   44 1
     5    2    3 1
     6    2   45 1
     7    2   46 1
     8    3    4 1
     9    4    5 2
    10    4    6 1
    11    6    7 1
    12    6   47 1
    13    6   48 1
    14    7   12 1
    15    7    8 1
    16    8    9 1
    17    8   49 1
    18    8   50 1
    19    9   10 1
    20    9   51 1
    21    9   52 1
    22   10   11 1
    23   10   13 1
    24   10   80 1
    25   11   12 1
    26   11   53 1
    27   11   54 1
    28   12   55 1
    29   12   56 1
    30   13   14 1
    31   13   57 1
    32   13   58 1
    33   14   15 1
    34   14   59 1
    35   14   60 1
    36   15   16 1
    37   15   61 1
    38   15   62 1
    39   16   21 2
    40   16   17 1
    41   17   41 1
    42   17   18 2
    43   18   19 1
    44   18   38 1
    45   19   20 1
    46   19   21 1
    47   21   22 1
    48   22   23 2
    49   22   63 1
    50   23   31 1
    51   23   24 1
    52   24   29 ar
    53   24   25 ar
    54   25   26 ar
    55   25   64 1
    56   26   27 ar
    57   26   33 1
    58   27   28 ar
    59   27   65 1
    60   28   29 ar
    61   28   66 1
    62   29   30 1
    63   30   31 am
    64   30   67 1
    65   31   32 2
    66   33   34 2
    67   33   35 2
    68   33   36 1
    69   36   37 1
    70   36   68 1
    71   37   69 1
    72   37   70 1
    73   37   71 1
    74   38   39 1
    75   38   72 1
    76   38   73 1
    77   39   40 1
    78   39   74 1
    79   39   75 1
    80   40   41 1
    81   40   76 1
    82   40   77 1
    83   41   78 1
    84   41   79 1
@<TRIPOS>MOLECULE
CHEMBL291759__1
   79    83     0     0     0
SMALL
USER_CHARGES

@<TRIPOS>ATOM
      1 C1         -0.4020    0.9151   -0.9089 C.3       1 <0>        -0.1529
      2 C2         -0.1987   -0.5973   -0.7979 C.3       1 <0>         0.0618
      3 O1          0.3645   -0.9099    0.4777 O.3       1 <0>        -0.3564
      4 C3          0.6066   -2.2046    0.7362 C.2       1 <0>         0.4606
      5 O2          0.3488   -3.0447   -0.0931 O.2       1 <0>        -0.4884
      6 C4          1.1998   -2.6104    2.0607 C.3       1 <0>         0.0636
      7 N1          1.3662   -4.0695    2.0963 N.3       1 <0>        -0.5284
      8 C5          0.0632   -4.7488    2.0777 C.3       1 <0>         0.0499
      9 C6          0.2808   -6.2631    2.0354 C.3       1 <0>         0.0610
     10 N2          1.0695   -6.6749    3.2050 N.3       1 <0>        -0.5405
     11 C7          2.3725   -5.9957    3.2236 C.3       1 <0>         0.0560
     12 C8          2.1549   -4.4813    3.2659 C.3       1 <0>         0.0591
     13 C9          1.2359   -8.1340    3.2406 C.3       1 <0>         0.0550
     14 C10         1.8382   -8.5460    4.5854 C.3       1 <0>        -0.1075
     15 C11         2.0115  -10.0657    4.6224 C.3       1 <0>        -0.0539
     16 C12         2.6047  -10.4715    5.9469 C.2       1 <0>        -0.0759
     17 C13         3.9574  -10.5823    6.2485 C.2       1 <0>        -0.1705
     18 C14         4.0712  -10.9741    7.5476 C.2       1 <0>         0.0723
     19 N3          2.8322  -11.1115    8.0729 N.pl3     1 <0>        -0.5034
     20 H1          2.6296  -11.3800    8.9828 H         1 <0>         0.4188
     21 C15         1.9048  -10.8000    7.0998 C.2       1 <0>        -0.0231
     22 C16         0.5025  -10.8153    7.2484 C.2       1 <0>         0.0952
     23 C17        -0.0940  -11.7433    8.0806 C.2       1 <0>        -0.2177
     24 C18        -1.5200  -11.8191    8.4683 C.ar      1 <0>        -0.1103
     25 C19        -2.6363  -11.0508    8.1537 C.ar      1 <0>         0.0334
     26 C20        -3.8661  -11.3809    8.6858 C.ar      1 <0>        -0.6980
     27 C21        -3.9875  -12.4724    9.5298 C.ar      1 <0>         0.0090
     28 C22        -2.8864  -13.2410    9.8482 C.ar      1 <0>        -0.1540
     29 C23        -1.6388  -12.9246    9.3217 C.ar      1 <0>         0.1943
     30 N4         -0.3920  -13.5180    9.4754 N.am      1 <0>        -0.6510
     31 C24         0.5489  -12.8715    8.7665 C.2       1 <0>         0.5584
     32 O3          1.7291  -13.1675    8.7060 O.2       1 <0>        -0.5049
     33 S1         -5.2840  -10.4120    8.2913 S.o2      1 <0>         2.6995
     34 O4         -6.2135  -10.6029    9.3490 O.2       1 <0>        -0.9538
     35 O5         -4.8066   -9.1263    7.9194 O.2       1 <0>        -0.9561
     36 N5         -5.9673  -11.0735    6.9356 N.pl3     1 <0>        -1.1201
     37 C25        -6.5358  -12.4227    6.9857 C.3       1 <0>         0.0816
     38 C26         5.3916  -11.2064    8.2431 C.3       1 <0>        -0.0574
     39 C27         6.4840  -11.3410    7.1759 C.3       1 <0>        -0.1126
     40 C28         6.3891  -10.1690    6.1953 C.3       1 <0>        -0.1199
     41 C29         5.1294  -10.3238    5.3345 C.3       1 <0>        -0.0456
     42 H2          0.5584    1.4196   -0.8022 H         1 <0>         0.0671
     43 H3         -0.8316    1.1536   -1.8818 H         1 <0>         0.0802
     44 H4         -1.0775    1.2496   -0.1216 H         1 <0>         0.0668
     45 H5         -1.1591   -1.1017   -0.9045 H         1 <0>         0.0672
     46 H6          0.4768   -0.9318   -1.5852 H         1 <0>         0.0681
     47 H7          2.1706   -2.1309    2.1862 H         1 <0>         0.1183
     48 H8          0.5347   -2.3008    2.8669 H         1 <0>         0.0796
     49 H9         -0.4964   -4.4867    2.9757 H         1 <0>         0.0427
     50 H10        -0.4968   -4.4371    1.1960 H         1 <0>         0.0936
     51 H11        -0.6841   -6.7698    2.0508 H         1 <0>         0.0806
     52 H12         0.8166   -6.5282    1.1239 H         1 <0>         0.0447
     53 H13         2.9325   -6.3073    4.1053 H         1 <0>         0.0857
     54 H14         2.9321   -6.2577    2.3257 H         1 <0>         0.0439
     55 H15         3.1198   -3.9746    3.2505 H         1 <0>         0.0830
     56 H16         1.6191   -4.2162    4.1774 H         1 <0>         0.0483
     57 H17         0.2651   -8.6135    3.1151 H         1 <0>         0.0752
     58 H18         1.9010   -8.4436    2.4344 H         1 <0>         0.0360
     59 H19         2.8090   -8.0665    4.7108 H         1 <0>         0.0658
     60 H20         1.1731   -8.2364    5.3915 H         1 <0>         0.0711
     61 H21         1.0407  -10.5452    4.4969 H         1 <0>         0.0692
     62 H22         2.6766  -10.3753    3.8162 H         1 <0>         0.0745
     63 H23        -0.1052  -10.1017    6.7119 H         1 <0>         0.1551
     64 H24        -2.5408  -10.1995    7.4960 H         1 <0>         0.1464
     65 H25        -4.9530  -12.7243    9.9430 H         1 <0>         0.1496
     66 H26        -2.9938  -14.0896   10.5075 H         1 <0>         0.1391
     67 H27        -0.2229  -14.3014   10.0219 H         1 <0>         0.4207
     68 H28        -5.9911  -10.5676    6.1083 H         1 <0>         0.4205
     69 H29        -5.7583  -13.1346    7.2628 H         1 <0>         0.0603
     70 H30        -7.3360  -12.4525    7.7253 H         1 <0>         0.0702
     71 H31        -6.9362  -12.6849    6.0064 H         1 <0>         0.0847
     72 H32         5.6169  -10.3620    8.8945 H         1 <0>         0.0798
     73 H33         5.3398  -12.1217    8.8328 H         1 <0>         0.0765
     74 H34         7.4629  -11.3349    7.6554 H         1 <0>         0.0711
     75 H35         6.3504  -12.2782    6.6356 H         1 <0>         0.0677
     76 H36         6.3361   -9.2332    6.7517 H         1 <0>         0.0644
     77 H37         7.2695  -10.1605    5.5528 H         1 <0>         0.0671
     78 H38         5.2535  -11.1632    4.6503 H         1 <0>         0.0679
     79 H39         4.9577   -9.4092    4.7670 H         1 <0>         0.0700
@<TRIPOS>BOND
     1    1    2 1
     2    1   42 1
     3    1   43 1
     4    1   44 1
     5    2    3 1
     6    2   45 1
     7    2   46 1
     8    3    4 1
     9    4    5 2
    10    4    6 1
    11    6    7 1
    12    6   47 1
    13    6   48 1
    14    7   12 1
    15    7    8 1
    16    8    9 1
    17    8   49 1
    18    8   50 1
    19    9   10 1
    20    9   51 1
    21    9   52 1
    22   10   11 1
    23   10   13 1
    24   11   12 1
    25   11   53 1
    26   11   54 1
    27   12   55 1
    28   12   56 1
    29   13   14 1
    30   13   57 1
    31   13   58 1
    32   14   15 1
    33   14   59 1
    34   14   60 1
    35   15   16 1
    36   15   61 1
    37   15   62 1
    38   16   21 2
    39   16   17 1
    40   17   41 1
    41   17   18 2
    42   18   19 1
    43   18   38 1
    44   19   20 1
    45   19   21 1
    46   21   22 1
    47   22   23 2
    48   22   63 1
    49   23   31 1
    50   23   24 1
    51   24   29 ar
    52   24   25 ar
    53   25   26 ar
    54   25   64 1
    55   26   27 ar
    56   26   33 1
    57   27   28 ar
    58   27   65 1
    59   28   29 ar
    60   28   66 1
    61   29   30 1
    62   30   31 am
    63   30   67 1
    64   31   32 2
    65   33   34 2
    66   33   35 2
    67   33   36 1
    68   36   37 1
    69   36   68 1
    70   37   69 1
    71   37   70 1
    72   37   71 1
    73   38   39 1
    74   38   72 1
    75   38   73 1
    76   39   40 1
    77   39   74 1
    78   39   75 1
    79   40   41 1
    80   40   76 1
    81   40   77 1
    82   41   78 1
    83   41   79 1
@<TRIPOS>MOLECULE
CHEMBL205108
   45    49     0     0     0
SMALL
USER_CHARGES

@<TRIPOS>ATOM
      1 C1         -0.1594    2.0579    0.1487 C.ar      1 <0>        -0.1705
      2 C2          1.1079    2.5988    0.0952 C.ar      1 <0>        -0.0587
      3 C3          2.2166    1.7656    0.0813 C.ar      1 <0>        -0.0018
      4 C4          2.0494    0.3701    0.1218 C.ar      1 <0>         0.1127
      5 C5          0.7600   -0.1678    0.1755 C.ar      1 <0>        -0.1698
      6 C6         -0.3348    0.6764    0.1891 C.ar      1 <0>         0.2166
      7 N1         -1.6262    0.1404    0.2433 N.pl3     1 <0>        -0.6339
      8 C7         -1.8474   -1.3122    0.1627 C.3       1 <0>         0.0872
      9 C8         -2.7539   -1.7285    1.3267 C.3       1 <0>         0.0454
     10 O1         -3.9241   -0.9073    1.3290 O.3       1 <0>        -0.3798
     11 C9         -3.6631    0.4829    1.5363 C.3       1 <0>         0.0453
     12 C10        -2.8027    1.0121    0.3887 C.3       1 <0>         0.0885
     13 N2          3.2867   -0.1838    0.0968 N.2       1 <0>        -0.5406
     14 C11         4.1943    0.7640    0.0443 C.2       1 <0>         0.3905
     15 N3          3.5829    1.9898    0.0326 N.pl3     1 <0>        -0.5794
     16 H1          4.0238    2.8530   -0.0037 H         1 <0>         0.4333
     17 C12         5.6498    0.5425    0.0050 C.2       1 <0>        -0.2827
     18 C13         6.1602   -0.7522   -0.1036 C.2       1 <0>         0.3600
     19 C14         7.6183   -0.9158   -0.1390 C.ar      1 <0>        -0.1076
     20 C15         8.2197   -2.1734   -0.2467 C.ar      1 <0>        -0.1008
     21 C16         9.5965   -2.2442   -0.2739 C.ar      1 <0>         0.0658
     22 N4         10.3390   -1.1539   -0.2004 N.ar      1 <0>        -0.4338
     23 C17         9.8209    0.0518   -0.0981 C.ar      1 <0>         0.0799
     24 C18         8.4402    0.2233   -0.0630 C.ar      1 <0>         0.1594
     25 N5          7.8732    1.4758    0.0442 N.am      1 <0>        -0.6294
     26 C19         6.5399    1.6425    0.0714 C.2       1 <0>         0.5780
     27 O2          6.0848    2.7693    0.1615 O.2       1 <0>        -0.5529
     28 N6          5.3237   -1.8394   -0.1749 N.pl3     1 <0>        -0.7979
     29 H2         -1.0208    2.7091    0.1639 H         1 <0>         0.1307
     30 H3          1.2371    3.6706    0.0637 H         1 <0>         0.1248
     31 H4          0.6198   -1.2382    0.2067 H         1 <0>         0.1273
     32 H5         -2.3288   -1.5583   -0.7837 H         1 <0>         0.0702
     33 H6         -0.8929   -1.8335    0.2361 H         1 <0>         0.0935
     34 H7         -3.0423   -2.7729    1.2080 H         1 <0>         0.1043
     35 H8         -2.2189   -1.6025    2.2680 H         1 <0>         0.0558
     36 H9         -4.6056    1.0295    1.5684 H         1 <0>         0.1049
     37 H10        -3.1314    0.6170    2.4783 H         1 <0>         0.0553
     38 H11        -2.4806    2.0293    0.6117 H         1 <0>         0.0921
     39 H12        -3.3820    1.0040   -0.5346 H         1 <0>         0.0700
     40 H13         7.6194   -3.0692   -0.3068 H         1 <0>         0.1473
     41 H14        10.0765   -3.2081   -0.3564 H         1 <0>         0.1689
     42 H15        10.4707    0.9125   -0.0411 H         1 <0>         0.1728
     43 H16         4.3641   -1.7101   -0.2322 H         1 <0>         0.4344
     44 H17         5.6926   -2.7365   -0.1679 H         1 <0>         0.4023
     45 H18         8.4496    2.2543    0.0959 H         1 <0>         0.4222
@<TRIPOS>BOND
     1    1    6 ar
     2    1    2 ar
     3    1   29 1
     4    2    3 ar
     5    2   30 1
     6    3   15 1
     7    3    4 ar
     8    4    5 ar
     9    4   13 1
    10    5    6 ar
    11    5   31 1
    12    6    7 1
    13    7   12 1
    14    7    8 1
    15    8    9 1
    16    8   32 1
    17    8   33 1
    18    9   10 1
    19    9   34 1
    20    9   35 1
    21   10   11 1
    22   11   12 1
    23   11   36 1
    24   11   37 1
    25   12   38 1
    26   12   39 1
    27   13   14 2
    28   14   15 1
    29   14   17 1
    30   15   16 1
    31   17   26 1
    32   17   18 2
    33   18   19 1
    34   18   28 1
    35   19   24 ar
    36   19   20 ar
    37   20   21 ar
    38   20   40 1
    39   21   22 ar
    40   21   41 1
    41   22   23 ar
    42   23   24 ar
    43   23   42 1
    44   24   25 1
    45   25   26 am
    46   25   45 1
    47   26   27 2
    48   28   43 1
    49   28   44 1
@<TRIPOS>MOLECULE
CHEMBL205893
   50    54     0     0     0
SMALL
USER_CHARGES

@<TRIPOS>ATOM
      1 C1         -0.0535    1.5101    0.0601 C.3       1 <0>        -0.0469
      2 N1         -0.0301    0.0414    0.0494 N.4       1 <0>        -0.3837
      3 C2         -1.4072   -0.4682    0.0478 C.3       1 <0>        -0.0238
      4 C3         -1.3856   -1.9951   -0.0789 C.3       1 <0>         0.1006
      5 N2         -0.5378   -2.5400    0.9927 N.pl3     1 <0>        -0.6428
      6 C4          0.8063   -1.9694    1.1712 C.3       1 <0>         0.0994
      7 C5          0.6812   -0.4437    1.2389 C.3       1 <0>        -0.0227
      8 C6         -0.9968   -3.5709    1.8187 C.ar      1 <0>         0.2074
      9 C7         -2.3135   -4.0139    1.7085 C.ar      1 <0>        -0.1818
     10 C8         -2.7774   -5.0194    2.5074 C.ar      1 <0>        -0.0222
     11 C9         -1.9285   -5.6146    3.4464 C.ar      1 <0>         0.0304
     12 C10        -0.5995   -5.1701    3.5596 C.ar      1 <0>         0.0895
     13 C11        -0.1388   -4.1511    2.7390 C.ar      1 <0>        -0.1811
     14 N3         -0.0189   -5.9347    4.5550 N.pl3     1 <0>        -0.5821
     15 C12        -0.9787   -6.8015    5.0117 C.2       1 <0>         0.3924
     16 N4         -2.0987   -6.6076    4.3554 N.2       1 <0>        -0.5251
     17 C13        -0.7820   -7.7995    6.0770 C.2       1 <0>        -0.2906
     18 C14        -1.7920   -8.7149    6.3763 C.2       1 <0>         0.3670
     19 C15        -1.5435   -9.6876    7.4468 C.ar      1 <0>        -0.1106
     20 C16        -2.4962  -10.6422    7.8155 C.ar      1 <0>        -0.1006
     21 C17        -2.1871  -11.5220    8.8313 C.ar      1 <0>         0.0699
     22 N5         -1.0201  -11.4715    9.4483 N.ar      1 <0>        -0.4306
     23 C18        -0.0909  -10.5922    9.1382 C.ar      1 <0>         0.0825
     24 C19        -0.3115   -9.6636    8.1255 C.ar      1 <0>         0.1585
     25 N6          0.6462   -8.7328    7.7816 N.am      1 <0>        -0.6283
     26 C20         0.4358   -7.8395    6.7997 C.2       1 <0>         0.5806
     27 O1          1.3136   -7.0393    6.5276 O.2       1 <0>        -0.5588
     28 N7         -2.9825   -8.7056    5.6901 N.pl3     1 <0>        -0.7970
     29 H1          0.9683    1.8898    0.0532 H         1 <0>         0.1247
     30 H2         -0.5813    1.8715   -0.8225 H         1 <0>         0.1250
     31 H3         -0.5647    1.8589    0.9573 H         1 <0>         0.1214
     32 H4         -1.8997   -0.1877    0.9788 H         1 <0>         0.1327
     33 H5         -1.9517   -0.0413   -0.7945 H         1 <0>         0.1409
     34 H6         -2.3984   -2.3853    0.0211 H         1 <0>         0.1284
     35 H7         -0.9757   -2.2764   -1.0490 H         1 <0>         0.0878
     36 H8          1.2426   -2.3425    2.0977 H         1 <0>         0.1253
     37 H9          1.4375   -2.2480    0.3274 H         1 <0>         0.0875
     38 H10         1.6756    0.0013    1.2743 H         1 <0>         0.1403
     39 H11         0.1255   -0.1640    2.1339 H         1 <0>         0.1325
     40 H12        -2.9729   -3.5577    0.9851 H         1 <0>         0.1296
     41 H13        -3.7998   -5.3549    2.4145 H         1 <0>         0.1353
     42 H14         0.8824   -3.8090    2.8198 H         1 <0>         0.1231
     43 H15        -3.4527  -10.6893    7.3162 H         1 <0>         0.1483
     44 H16        -2.9122  -12.2654    9.1279 H         1 <0>         0.1710
     45 H17         0.8477  -10.5915    9.6725 H         1 <0>         0.1742
     46 H18        -3.1011   -8.1115    4.9326 H         1 <0>         0.4328
     47 H19        -3.7044   -9.2931    5.9633 H         1 <0>         0.4050
     48 H20         1.4921   -8.7253    8.2562 H         1 <0>         0.4236
     49 H21         0.4459   -0.2802   -0.7801 H         1 <0>         0.4247
     50 H22         0.8960   -5.8703    4.8706 H         1 <0>         0.4363
@<TRIPOS>BOND
     1    1    2 1
     2    1   29 1
     3    1   30 1
     4    1   31 1
     5    2    7 1
     6    2    3 1
     7    2   49 1
     8    3    4 1
     9    3   32 1
    10    3   33 1
    11    4    5 1
    12    4   34 1
    13    4   35 1
    14    5    6 1
    15    5    8 1
    16    6    7 1
    17    6   36 1
    18    6   37 1
    19    7   38 1
    20    7   39 1
    21    8   13 ar
    22    8    9 ar
    23    9   10 ar
    24    9   40 1
    25   10   11 ar
    26   10   41 1
    27   11   16 1
    28   11   12 ar
    29   12   13 ar
    30   12   14 1
    31   13   42 1
    32   14   15 1
    33   14   50 1
    34   15   16 2
    35   15   17 1
    36   17   26 1
    37   17   18 2
    38   18   19 1
    39   18   28 1
    40   19   24 ar
    41   19   20 ar
    42   20   21 ar
    43   20   43 1
    44   21   22 ar
    45   21   44 1
    46   22   23 ar
    47   23   24 ar
    48   23   45 1
    49   24   25 1
    50   25   26 am
    51   25   48 1
    52   26   27 2
    53   28   46 1
    54   28   47 1
@<TRIPOS>MOLECULE
CHEMBL205893__1
   49    53     0     0     0
SMALL
USER_CHARGES

@<TRIPOS>ATOM
      1 C1          0.0304    1.3919   -0.1135 C.3       1 <0>         0.0243
      2 N1          0.0492   -0.0769   -0.0983 N.3       1 <0>        -0.5426
      3 C2         -1.3117   -0.6218   -0.1941 C.3       1 <0>         0.0380
      4 C3         -1.2386   -2.1437   -0.3575 C.3       1 <0>         0.1272
      5 N2         -0.4246   -2.6926    0.7376 N.pl3     1 <0>        -0.6317
      6 C4          0.9001   -2.1025    0.9834 C.3       1 <0>         0.1272
      7 C5          0.7428   -0.5823    1.0939 C.3       1 <0>         0.0388
      8 C6         -0.8976   -3.7485    1.5246 C.ar      1 <0>         0.2177
      9 C7         -2.2001   -4.2126    1.3510 C.ar      1 <0>        -0.1713
     10 C8         -2.6782   -5.2522    2.1199 C.ar      1 <0>        -0.0594
     11 C9         -1.8606   -5.8421    3.0729 C.ar      1 <0>        -0.0033
     12 C10        -0.5454   -5.3807    3.2552 C.ar      1 <0>         0.1128
     13 C11        -0.0686   -4.3292    2.4659 C.ar      1 <0>        -0.1710
     14 N3          0.0113   -6.1308    4.2379 N.2       1 <0>        -0.5405
     15 C12        -0.8613   -7.0128    4.6687 C.2       1 <0>         0.3888
     16 N4         -2.0369   -6.8752    3.9789 N.pl3     1 <0>        -0.5795
     17 H1         -2.8418   -7.4023    4.1018 H         1 <0>         0.4328
     18 C13        -0.6135   -8.0006    5.7325 C.2       1 <0>        -0.2819
     19 C14         0.5811   -7.9705    6.4540 C.2       1 <0>         0.3592
     20 C15         0.7764   -8.9782    7.5031 C.ar      1 <0>        -0.1073
     21 C16         1.9400   -9.0252    8.2769 C.ar      1 <0>        -0.1008
     22 C17         2.0481  -10.0024    9.2438 C.ar      1 <0>         0.0656
     23 N5          1.0794  -10.8786    9.4419 N.ar      1 <0>        -0.4340
     24 C18        -0.0342  -10.8759    8.7403 C.ar      1 <0>         0.0797
     25 C19        -0.2341   -9.9272    7.7419 C.ar      1 <0>         0.1594
     26 N6         -1.3922   -9.9032    6.9936 N.am      1 <0>        -0.6295
     27 C20        -1.5884   -8.9833    6.0335 C.2       1 <0>         0.5778
     28 O1         -2.6304   -8.9981    5.4019 O.2       1 <0>        -0.5527
     29 N7          1.5442   -7.0273    6.1900 N.pl3     1 <0>        -0.7980
     30 H2          1.0533    1.7683   -0.1185 H         1 <0>         0.0703
     31 H3         -0.4890    1.7394   -1.0066 H         1 <0>         0.0699
     32 H4         -0.4871    1.7578    0.7733 H         1 <0>         0.0254
     33 H5         -1.8652   -0.3796    0.7131 H         1 <0>         0.0384
     34 H6         -1.8176   -0.1873   -1.0563 H         1 <0>         0.0852
     35 H7         -2.2428   -2.5653   -0.3141 H         1 <0>         0.0866
     36 H8         -0.7772   -2.3875   -1.3144 H         1 <0>         0.0698
     37 H9          1.3098   -2.4969    1.9133 H         1 <0>         0.0871
     38 H10         1.5671   -2.3424    0.1553 H         1 <0>         0.0692
     39 H11         1.7269   -0.1191    1.1659 H         1 <0>         0.0851
     40 H12         0.1607   -0.3405    1.9832 H         1 <0>         0.0383
     41 H13        -2.8388   -3.7550    0.6100 H         1 <0>         0.1306
     42 H14        -3.6887   -5.6069    1.9806 H         1 <0>         0.1238
     43 H15         0.9418   -3.9698    2.5941 H         1 <0>         0.1270
     44 H16         2.7363   -8.3126    8.1206 H         1 <0>         0.1473
     45 H17         2.9407  -10.0525    9.8497 H         1 <0>         0.1688
     46 H18        -0.7968  -11.6141    8.9402 H         1 <0>         0.1727
     47 H19         1.3676   -6.3196    5.5506 H         1 <0>         0.4345
     48 H20         2.4009   -7.0689    6.6431 H         1 <0>         0.4021
     49 H21        -2.0823  -10.5625    7.1666 H         1 <0>         0.4220
@<TRIPOS>BOND
     1    1    2 1
     2    1   30 1
     3    1   31 1
     4    1   32 1
     5    2    7 1
     6    2    3 1
     7    3    4 1
     8    3   33 1
     9    3   34 1
    10    4    5 1
    11    4   35 1
    12    4   36 1
    13    5    6 1
    14    5    8 1
    15    6    7 1
    16    6   37 1
    17    6   38 1
    18    7   39 1
    19    7   40 1
    20    8   13 ar
    21    8    9 ar
    22    9   10 ar
    23    9   41 1
    24   10   11 ar
    25   10   42 1
    26   11   16 1
    27   11   12 ar
    28   12   13 ar
    29   12   14 1
    30   13   43 1
    31   14   15 2
    32   15   16 1
    33   15   18 1
    34   16   17 1
    35   18   27 1
    36   18   19 2
    37   19   20 1
    38   19   29 1
    39   20   25 ar
    40   20   21 ar
    41   21   22 ar
    42   21   44 1
    43   22   23 ar
    44   22   45 1
    45   23   24 ar
    46   24   25 ar
    47   24   46 1
    48   25   26 1
    49   26   27 am
    50   26   49 1
    51   27   28 2
    52   29   47 1
    53   29   48 1
@<TRIPOS>MOLECULE
CHEMBL205893__2
   50    54     0     0     0
SMALL
USER_CHARGES

@<TRIPOS>ATOM
      1 C1          0.0277    1.3839   -0.1156 C.3       1 <0>        -0.0469
      2 N1          0.0468   -0.0849   -0.0997 N.4       1 <0>        -0.3837
      3 C2         -1.3317   -0.5907   -0.1027 C.3       1 <0>        -0.0236
      4 C3         -1.3135   -2.1196   -0.2019 C.3       1 <0>         0.1009
      5 N2         -0.4754   -2.6476    0.8857 N.pl3     1 <0>        -0.6444
      6 C4          0.8690   -2.0775    1.0641 C.3       1 <0>         0.1003
      7 C5          0.7478   -0.5506    1.1035 C.3       1 <0>        -0.0229
      8 C6         -0.9438   -3.6628    1.7270 C.ar      1 <0>         0.1933
      9 C7         -2.2611   -4.1034    1.6144 C.ar      1 <0>        -0.1704
     10 C8         -2.7349   -5.1029    2.4371 C.ar      1 <0>        -0.0529
     11 C9         -1.8981   -5.6757    3.3840 C.ar      1 <0>         0.0106
     12 C10        -0.5679   -5.2378    3.5050 C.ar      1 <0>         0.1107
     13 C11        -0.0958   -4.2270    2.6614 C.ar      1 <0>        -0.1518
     14 N3          0.0058   -5.9636    4.4961 N.2       1 <0>        -0.5428
     15 C12        -0.8703   -6.8093    4.9884 C.2       1 <0>         0.4077
     16 N4         -2.0654   -6.6705    4.3334 N.pl3     1 <0>        -0.5779
     17 H1         -2.8768   -7.1744    4.5027 H         1 <0>         0.4378
     18 C13        -0.6075   -7.7626    6.0797 C.2       1 <0>        -0.2923
     19 C14         0.6110   -7.7325    6.7600 C.2       1 <0>         0.3695
     20 C15         0.8204   -8.7052    7.8391 C.ar      1 <0>        -0.1123
     21 C16         2.0081   -8.7496    8.5754 C.ar      1 <0>        -0.1007
     22 C17         2.1282   -9.6928    9.5741 C.ar      1 <0>         0.0692
     23 N5          1.1486  -10.5395    9.8366 N.ar      1 <0>        -0.4299
     24 C18         0.0123  -10.5378    9.1723 C.ar      1 <0>         0.0831
     25 C19        -0.2012   -9.6221    8.1462 C.ar      1 <0>         0.1603
     26 N6         -1.3830   -9.5999    7.4360 N.am      1 <0>        -0.6281
     27 C20        -1.5922   -8.7117    6.4492 C.2       1 <0>         0.5796
     28 O1         -2.6549   -8.7266    5.8531 O.2       1 <0>        -0.5542
     29 N7          1.5843   -6.8212    6.4294 N.pl3     1 <0>        -0.7977
     30 H2          1.0505    1.7605   -0.1215 H         1 <0>         0.1246
     31 H3         -0.4925    1.7308   -1.0084 H         1 <0>         0.1247
     32 H4         -0.4893    1.7500    0.7715 H         1 <0>         0.1213
     33 H5         -1.8303   -0.2922    0.8195 H         1 <0>         0.1323
     34 H6         -1.8686   -0.1774   -0.9565 H         1 <0>         0.1401
     35 H7         -2.3282   -2.5052   -0.1025 H         1 <0>         0.1270
     36 H8         -0.8972   -2.4193   -1.1636 H         1 <0>         0.0870
     37 H9          1.2972   -2.4353    2.0004 H         1 <0>         0.1268
     38 H10         1.5057   -2.3730    0.2302 H         1 <0>         0.0866
     39 H11         1.7432   -0.1078    1.1386 H         1 <0>         0.1400
     40 H12         0.1863   -0.2533    1.9892 H         1 <0>         0.1322
     41 H13        -2.9147   -3.6590    0.8784 H         1 <0>         0.1301
     42 H14        -3.7569   -5.4396    2.3450 H         1 <0>         0.1302
     43 H15         0.9257   -3.8861    2.7424 H         1 <0>         0.1277
     44 H16         2.8134   -8.0610    8.3665 H         1 <0>         0.1476
     45 H17         3.0394   -9.7404   10.1519 H         1 <0>         0.1709
     46 H18        -0.7584  -11.2510    9.4247 H         1 <0>         0.1748
     47 H19         1.4010   -6.1336    5.7703 H         1 <0>         0.4323
     48 H20         2.4548   -6.8654    6.8551 H         1 <0>         0.4045
     49 H21        -2.0805  -10.2370    7.6562 H         1 <0>         0.4244
     50 H22         0.5281   -0.4226   -0.9197 H         1 <0>         0.4244
@<TRIPOS>BOND
     1    1    2 1
     2    1   30 1
     3    1   31 1
     4    1   32 1
     5    2    7 1
     6    2    3 1
     7    2   50 1
     8    3    4 1
     9    3   33 1
    10    3   34 1
    11    4    5 1
    12    4   35 1
    13    4   36 1
    14    5    6 1
    15    5    8 1
    16    6    7 1
    17    6   37 1
    18    6   38 1
    19    7   39 1
    20    7   40 1
    21    8   13 ar
    22    8    9 ar
    23    9   10 ar
    24    9   41 1
    25   10   11 ar
    26   10   42 1
    27   11   16 1
    28   11   12 ar
    29   12   13 ar
    30   12   14 1
    31   13   43 1
    32   14   15 2
    33   15   16 1
    34   15   18 1
    35   16   17 1
    36   18   27 1
    37   18   19 2
    38   19   20 1
    39   19   29 1
    40   20   25 ar
    41   20   21 ar
    42   21   22 ar
    43   21   44 1
    44   22   23 ar
    45   22   45 1
    46   23   24 ar
    47   24   25 ar
    48   24   46 1
    49   25   26 1
    50   26   27 am
    51   26   49 1
    52   27   28 2
    53   29   47 1
    54   29   48 1
@<TRIPOS>MOLECULE
CHEMBL211662
   70    76     0     0     0
SMALL
USER_CHARGES

@<TRIPOS>ATOM
      1 C1          2.4285    1.3586    3.2519 C.ar      1 <0>        -0.1527
      2 C2          2.4196   -0.0238    3.2220 C.ar      1 <0>        -0.0823
      3 C3          2.8086   -0.6936    2.0783 C.ar      1 <0>        -0.1946
      4 C4          3.2081    0.0221    0.9586 C.ar      1 <0>         0.1214
      5 C5          3.2157    1.4093    0.9912 C.ar      1 <0>        -0.1457
      6 C6          2.8261    2.0742    2.1376 C.ar      1 <0>        -0.0831
      7 O1          3.5917   -0.6344   -0.1676 O.3       1 <0>        -0.2553
      8 C7          3.6626   -1.9907   -0.1226 C.ar      1 <0>         0.0845
      9 C8          2.4803   -2.7396   -0.1624 C.ar      1 <0>        -0.1119
     10 C9          2.4912   -4.0957   -0.1206 C.ar      1 <0>        -0.0557
     11 C10         3.7211   -4.7804   -0.0347 C.ar      1 <0>         0.0593
     12 C11         4.9619   -3.9906    0.0070 C.ar      1 <0>        -0.0896
     13 C12         4.8853   -2.5930   -0.0451 C.ar      1 <0>        -0.0576
     14 C13         5.9811   -4.9467    0.0905 C.2       1 <0>         0.0666
     15 N1          5.3668   -6.1606    0.0951 N.pl3     1 <0>        -0.3325
     16 H1          5.8361   -7.0080    0.1460 H         1 <0>         0.4486
     17 N2          4.0894   -6.0472    0.0238 N.2       1 <0>        -0.2541
     18 C14         7.4241   -4.6906    0.1586 C.2       1 <0>         0.3651
     19 N3          8.3955   -5.6566    0.2343 N.pl3     1 <0>        -0.5994
     20 H2          8.2538   -6.6160    0.2522 H         1 <0>         0.4224
     21 C15         9.6163   -5.0047    0.2800 C.ar      1 <0>         0.0185
     22 C16        10.9320   -5.4378    0.3597 C.ar      1 <0>        -0.0610
     23 C17        11.9589   -4.5186    0.3887 C.ar      1 <0>        -0.1587
     24 C18        11.6847   -3.1530    0.3387 C.ar      1 <0>         0.2032
     25 C19        10.3799   -2.7047    0.2596 C.ar      1 <0>        -0.1470
     26 C20         9.3296   -3.6288    0.2286 C.ar      1 <0>         0.1033
     27 N4          7.9836   -3.5003    0.1505 N.2       1 <0>        -0.4645
     28 N5         12.7365   -2.2307    0.3694 N.pl3     1 <0>        -0.6353
     29 C21        12.4658   -0.7893    0.4568 C.3       1 <0>         0.1263
     30 C22        13.2447   -0.2124    1.6431 C.3       1 <0>        -0.1591
     31 C23        14.7264   -0.5660    1.4957 C.3       1 <0>         0.0276
     32 C24        14.8928   -2.0873    1.5025 C.3       1 <0>        -0.1596
     33 C25        14.1327   -2.6857    0.3207 C.3       1 <0>         0.1278
     34 N6         15.4816    0.0139    2.6144 N.4       1 <0>        -0.3809
     35 C26        15.3154    1.4723    2.6112 C.3       1 <0>        -0.0120
     36 C27        16.0332    2.0739    3.8213 C.3       1 <0>        -0.1453
     37 C28        17.5233    1.7282    3.7478 C.3       1 <0>        -0.1393
     38 C29        17.6813    0.2067    3.6767 C.3       1 <0>        -0.1452
     39 C30        16.9024   -0.3258    2.4720 C.3       1 <0>        -0.0116
     40 H3          2.1200    1.8804    4.1458 H         1 <0>         0.1250
     41 H4          2.1086   -0.5803    4.0938 H         1 <0>         0.1256
     42 H5          2.8022   -1.7733    2.0557 H         1 <0>         0.1293
     43 H6          3.5265    1.9687    0.1212 H         1 <0>         0.1324
     44 H7          2.8321    3.1538    2.1636 H         1 <0>         0.1310
     45 H8          1.5337   -2.2237   -0.2278 H         1 <0>         0.1413
     46 H9          1.5634   -4.6475   -0.1526 H         1 <0>         0.1443
     47 H10         5.7855   -1.9969   -0.0200 H         1 <0>         0.1475
     48 H11        11.1515   -6.4946    0.3994 H         1 <0>         0.1300
     49 H12        12.9821   -4.8587    0.4508 H         1 <0>         0.1336
     50 H13        10.1718   -1.6456    0.2211 H         1 <0>         0.1330
     51 H14        12.7866   -0.3008   -0.4632 H         1 <0>         0.0747
     52 H15        11.3985   -0.6263    0.6065 H         1 <0>         0.1050
     53 H16        13.1294    0.8713    1.6617 H         1 <0>         0.0987
     54 H17        12.8603   -0.6357    2.5711 H         1 <0>         0.0917
     55 H18        15.1040   -0.1635    0.5557 H         1 <0>         0.1372
     56 H19        15.9505   -2.3380    1.4210 H         1 <0>         0.0983
     57 H20        14.4929   -2.4929    2.4318 H         1 <0>         0.0915
     58 H21        14.1648   -3.7736    0.3807 H         1 <0>         0.1029
     59 H22        14.5924   -2.3553   -0.6107 H         1 <0>         0.0740
     60 H23        15.7402    1.8839    1.6957 H         1 <0>         0.1283
     61 H24        14.2543    1.7167    2.6603 H         1 <0>         0.1318
     62 H25        15.9101    3.1569    3.8161 H         1 <0>         0.1121
     63 H26        15.6090    1.6631    4.7375 H         1 <0>         0.0868
     64 H27        17.9593    2.1820    2.8578 H         1 <0>         0.0817
     65 H28        18.0293    2.1061    4.6362 H         1 <0>         0.0940
     66 H29        18.7363   -0.0450    3.5681 H         1 <0>         0.1118
     67 H30        17.2913   -0.2429    4.5898 H         1 <0>         0.0867
     68 H31        17.0130   -1.4088    2.4182 H         1 <0>         0.1310
     69 H32        17.2934    0.1242    1.5594 H         1 <0>         0.1281
     70 H33        15.1329   -0.3604    3.4841 H         1 <0>         0.4198
@<TRIPOS>BOND
     1    1    6 ar
     2    1    2 ar
     3    1   40 1
     4    2    3 ar
     5    2   41 1
     6    3    4 ar
     7    3   42 1
     8    4    5 ar
     9    4    7 1
    10    5    6 ar
    11    5   43 1
    12    6   44 1
    13    7    8 1
    14    8   13 ar
    15    8    9 ar
    16    9   10 ar
    17    9   45 1
    18   10   11 ar
    19   10   46 1
    20   11   17 2
    21   11   12 ar
    22   12   13 ar
    23   12   14 2
    24   13   47 1
    25   14   15 1
    26   14   18 1
    27   15   16 1
    28   15   17 1
    29   18   27 2
    30   18   19 1
    31   19   20 1
    32   19   21 1
    33   21   26 ar
    34   21   22 ar
    35   22   23 ar
    36   22   48 1
    37   23   24 ar
    38   23   49 1
    39   24   25 ar
    40   24   28 1
    41   25   26 ar
    42   25   50 1
    43   26   27 1
    44   28   33 1
    45   28   29 1
    46   29   30 1
    47   29   51 1
    48   29   52 1
    49   30   31 1
    50   30   53 1
    51   30   54 1
    52   31   32 1
    53   31   34 1
    54   31   55 1
    55   32   33 1
    56   32   56 1
    57   32   57 1
    58   33   58 1
    59   33   59 1
    60   34   39 1
    61   34   35 1
    62   34   70 1
    63   35   36 1
    64   35   60 1
    65   35   61 1
    66   36   37 1
    67   36   62 1
    68   36   63 1
    69   37   38 1
    70   37   64 1
    71   37   65 1
    72   38   39 1
    73   38   66 1
    74   38   67 1
    75   39   68 1
    76   39   69 1
@<TRIPOS>MOLECULE
CHEMBL211662__1
   70    76     0     0     0
SMALL
USER_CHARGES

@<TRIPOS>ATOM
      1 C1          2.4254    1.3566    3.2529 C.ar      1 <0>        -0.1527
      2 C2          2.4163   -0.0258    3.2220 C.ar      1 <0>        -0.0822
      3 C3          2.8064   -0.6949    2.0782 C.ar      1 <0>        -0.1958
      4 C4          3.2072    0.0215    0.9594 C.ar      1 <0>         0.1199
      5 C5          3.2149    1.4087    0.9929 C.ar      1 <0>        -0.1455
      6 C6          2.8243    2.0728    2.1394 C.ar      1 <0>        -0.0827
      7 O1          3.5918   -0.6343   -0.1668 O.3       1 <0>        -0.2509
      8 C7          3.6627   -1.9912   -0.1226 C.ar      1 <0>         0.0499
      9 C8          2.4932   -2.7485   -0.1627 C.ar      1 <0>        -0.0769
     10 C9          2.5435   -4.1121   -0.1198 C.ar      1 <0>        -0.1221
     11 C10         3.7723   -4.7630   -0.0346 C.ar      1 <0>         0.1309
     12 C11         4.9570   -4.0069    0.0064 C.ar      1 <0>        -0.1294
     13 C12         4.8926   -2.6125   -0.0439 C.ar      1 <0>        -0.0278
     14 C13         6.0599   -4.9717    0.0942 C.2       1 <0>         0.1566
     15 N1          5.5329   -6.1747    0.1019 N.2       1 <0>        -0.2188
     16 H1          3.5284   -6.8383    0.0142 H         1 <0>         0.4505
     17 N2          4.1395   -6.0850    0.0245 N.pl3     1 <0>        -0.4848
     18 C14         7.4985   -4.6488    0.1617 C.2       1 <0>         0.3696
     19 N3          8.5096   -5.5689    0.2379 N.pl3     1 <0>        -0.5806
     20 H2          8.4101   -6.5336    0.2563 H         1 <0>         0.4305
     21 C15         9.7004   -4.8647    0.2828 C.ar      1 <0>         0.0190
     22 C16        11.0344   -5.2388    0.3622 C.ar      1 <0>        -0.0598
     23 C17        12.0189   -4.2748    0.3898 C.ar      1 <0>        -0.1581
     24 C18        11.6838   -2.9228    0.3388 C.ar      1 <0>         0.2011
     25 C19        10.3603   -2.5335    0.2600 C.ar      1 <0>        -0.1458
     26 C20         9.3528   -3.5035    0.2305 C.ar      1 <0>         0.1001
     27 N4          8.0013   -3.4371    0.1521 N.2       1 <0>        -0.4668
     28 N5         12.6933   -1.9544    0.3681 N.pl3     1 <0>        -0.6355
     29 C21        12.3584   -0.5264    0.4543 C.3       1 <0>         0.1265
     30 C22        13.1112    0.0859    1.6397 C.3       1 <0>        -0.1591
     31 C23        14.6072   -0.2010    1.4919 C.3       1 <0>         0.0277
     32 C24        14.8415   -1.7133    1.5001 C.3       1 <0>        -0.1596
     33 C25        14.1084   -2.3464    0.3193 C.3       1 <0>         0.1280
     34 N6         15.3360    0.4132    2.6097 N.4       1 <0>        -0.3809
     35 C26        15.1046    1.8627    2.6052 C.3       1 <0>        -0.0120
     36 C27        15.7953    2.4971    3.8143 C.3       1 <0>        -0.1453
     37 C28        17.2993    2.2184    3.7406 C.3       1 <0>        -0.1392
     38 C29        17.5254    0.7054    3.6708 C.3       1 <0>        -0.1453
     39 C30        16.7706    0.1374    2.4670 C.3       1 <0>        -0.0116
     40 H3          2.1160    1.8778    4.1467 H         1 <0>         0.1252
     41 H4          2.1043   -0.5829    4.0931 H         1 <0>         0.1253
     42 H5          2.7999   -1.7746    2.0549 H         1 <0>         0.1280
     43 H6          3.5267    1.9686    0.1236 H         1 <0>         0.1326
     44 H7          2.8305    3.1525    2.1661 H         1 <0>         0.1312
     45 H8          1.5368   -2.2511   -0.2280 H         1 <0>         0.1435
     46 H9          1.6297   -4.6869   -0.1517 H         1 <0>         0.1413
     47 H10         5.7983   -2.0248   -0.0171 H         1 <0>         0.1517
     48 H11        11.3009   -6.2846    0.4028 H         1 <0>         0.1305
     49 H12        13.0563   -4.5687    0.4517 H         1 <0>         0.1331
     50 H13        10.1048   -1.4849    0.2207 H         1 <0>         0.1324
     51 H14        12.6566   -0.0249   -0.4664 H         1 <0>         0.0741
     52 H15        11.2849   -0.4113    0.6043 H         1 <0>         0.1051
     53 H16        12.9474    1.1634    1.6573 H         1 <0>         0.0982
     54 H17        12.7465   -0.3532    2.5683 H         1 <0>         0.0918
     55 H18        14.9659    0.2170    0.5514 H         1 <0>         0.1371
     56 H19        15.9093   -1.9165    1.4184 H         1 <0>         0.0980
     57 H20        14.4605   -2.1355    2.4300 H         1 <0>         0.0916
     58 H21        14.1893   -3.4317    0.3803 H         1 <0>         0.1030
     59 H22        14.5526   -1.9966   -0.6126 H         1 <0>         0.0735
     60 H23        15.5102    2.2920    1.6891 H         1 <0>         0.1281
     61 H24        14.0337    2.0594    2.6545 H         1 <0>         0.1319
     62 H25        15.6238    3.5735    3.8082 H         1 <0>         0.1120
     63 H26        15.3903    2.0686    4.7311 H         1 <0>         0.0868
     64 H27        17.7142    2.6903    2.8499 H         1 <0>         0.0816
     65 H28        17.7883    2.6194    4.6284 H         1 <0>         0.0939
     66 H29        18.5905    0.5011    3.5620 H         1 <0>         0.1117
     67 H30        17.1562    0.2397    4.5846 H         1 <0>         0.0867
     68 H31        16.9295   -0.9397    2.4142 H         1 <0>         0.1311
     69 H32        17.1406    0.6035    1.5538 H         1 <0>         0.1280
     70 H33        15.0048    0.0245    3.4800 H         1 <0>         0.4199
@<TRIPOS>BOND
     1    1    6 ar
     2    1    2 ar
     3    1   40 1
     4    2    3 ar
     5    2   41 1
     6    3    4 ar
     7    3   42 1
     8    4    5 ar
     9    4    7 1
    10    5    6 ar
    11    5   43 1
    12    6   44 1
    13    7    8 1
    14    8   13 ar
    15    8    9 ar
    16    9   10 ar
    17    9   45 1
    18   10   11 ar
    19   10   46 1
    20   11   12 ar
    21   11   17 1
    22   12   13 ar
    23   12   14 1
    24   13   47 1
    25   14   18 1
    26   14   15 2
    27   15   17 1
    28   16   17 1
    29   18   27 2
    30   18   19 1
    31   19   20 1
    32   19   21 1
    33   21   26 ar
    34   21   22 ar
    35   22   23 ar
    36   22   48 1
    37   23   24 ar
    38   23   49 1
    39   24   25 ar
    40   24   28 1
    41   25   26 ar
    42   25   50 1
    43   26   27 1
    44   28   33 1
    45   28   29 1
    46   29   30 1
    47   29   51 1
    48   29   52 1
    49   30   31 1
    50   30   53 1
    51   30   54 1
    52   31   32 1
    53   31   34 1
    54   31   55 1
    55   32   33 1
    56   32   56 1
    57   32   57 1
    58   33   58 1
    59   33   59 1
    60   34   39 1
    61   34   35 1
    62   34   70 1
    63   35   36 1
    64   35   60 1
    65   35   61 1
    66   36   37 1
    67   36   62 1
    68   36   63 1
    69   37   38 1
    70   37   64 1
    71   37   65 1
    72   38   39 1
    73   38   66 1
    74   38   67 1
    75   39   68 1
    76   39   69 1
@<TRIPOS>MOLECULE
CHEMBL459850
   52    55     0     0     0
SMALL
USER_CHARGES

@<TRIPOS>ATOM
      1 C1         -0.0441    1.5022    0.0285 C.3       1 <0>        -0.1132
      2 C2         -0.0168   -0.0045    0.0154 C.ar      1 <0>        -0.0784
      3 C3         -0.0042   -0.6841   -1.1877 C.ar      1 <0>        -0.0940
      4 C4          0.0204   -2.0651   -1.2041 C.ar      1 <0>        -0.1256
      5 C5          0.0328   -2.7754   -0.0098 C.ar      1 <0>         0.1422
      6 C6          0.0206   -2.0959    1.1998 C.ar      1 <0>        -0.0993
      7 C7          0.0012   -0.7084    1.2127 C.ar      1 <0>         0.1714
      8 N1         -0.0054   -0.0193    2.4305 N.am      1 <0>        -0.5708
      9 C8         -1.2793    0.3207    3.0899 C.3       1 <0>         0.1711
     10 C9         -1.1859    1.0639    4.3997 C.ar      1 <0>        -0.3083
     11 C10        -2.3003    1.4371    5.1113 C.ar      1 <0>         0.2393
     12 N2         -2.1347    2.0886    6.2567 N.ar      1 <0>        -0.5842
     13 C11        -0.9212    2.3741    6.7058 C.ar      1 <0>         0.6024
     14 N3          0.1742    2.0286    6.0441 N.ar      1 <0>        -0.5969
     15 C12         0.0822    1.3753    4.8923 C.ar      1 <0>         0.4686
     16 N4          1.2088    1.0013    4.1808 N.am      1 <0>        -0.5369
     17 C13         1.1509    0.3373    3.0189 C.2       1 <0>         0.7163
     18 O1          2.1942    0.0466    2.4666 O.2       1 <0>        -0.5423
     19 C14         2.5251    1.3434    4.7256 C.3       1 <0>         0.0888
     20 N5         -0.7934    3.0550    7.9039 N.pl3     1 <0>        -0.8143
     21 N6          0.0572   -4.1735   -0.0271 N.am      1 <0>        -0.6665
     22 C15         0.7403   -4.8473    0.9194 C.2       1 <0>         0.5597
     23 O2          1.2647   -4.2445    1.8356 O.2       1 <0>        -0.5032
     24 C16         0.8517   -6.3193    0.8435 C.ar      1 <0>        -0.1367
     25 C17         0.2555   -7.0141   -0.2105 C.ar      1 <0>        -0.0542
     26 C18         0.3637   -8.3876   -0.2757 C.ar      1 <0>        -0.1231
     27 C19         1.0613   -9.0769    0.7007 C.ar      1 <0>        -0.0432
     28 C20         1.6545   -8.3946    1.7477 C.ar      1 <0>        -0.1884
     29 C21         1.5584   -7.0201    1.8220 C.ar      1 <0>        -0.0072
     30 C22         2.4122   -9.1535    2.8064 C.3       1 <0>         0.5100
     31 F1          2.3759  -10.5215    2.5155 F         1 <0>        -0.1745
     32 F2          3.7412   -8.7173    2.8317 F         1 <0>        -0.1724
     33 F3          1.8230   -8.9264    4.0548 F         1 <0>        -0.1728
     34 H1          0.9768    1.8841    0.0271 H         1 <0>         0.0730
     35 H2         -0.5685    1.8638   -0.8560 H         1 <0>         0.0719
     36 H3         -0.5603    1.8485    0.9239 H         1 <0>         0.0636
     37 H4         -0.0138   -0.1343   -2.1173 H         1 <0>         0.1359
     38 H5          0.0295   -2.5933   -2.1460 H         1 <0>         0.1324
     39 H6          0.0299   -2.6456    2.1294 H         1 <0>         0.1429
     40 H7         -1.8651    0.9272    2.3991 H         1 <0>         0.0818
     41 H8         -1.8255   -0.6059    3.2662 H         1 <0>         0.0799
     42 H9         -3.2902    1.2057    4.7468 H         1 <0>         0.1789
     43 H10         2.8744    0.5342    5.3668 H         1 <0>         0.0674
     44 H11         3.2303    1.4888    3.9073 H         1 <0>         0.0892
     45 H12         2.4498    2.2617    5.3079 H         1 <0>         0.0918
     46 H13        -1.5848    3.3155    8.4006 H         1 <0>         0.4187
     47 H14         0.0877    3.2718    8.2469 H         1 <0>         0.4163
     48 H15        -0.4175   -4.6583   -0.7202 H         1 <0>         0.4120
     49 H16        -0.2895   -6.4774   -0.9729 H         1 <0>         0.1376
     50 H17        -0.0974   -8.9264   -1.0903 H         1 <0>         0.1465
     51 H18         1.1427  -10.1524    0.6451 H         1 <0>         0.1473
     52 H19         2.0254   -6.4882    2.6376 H         1 <0>         0.1494
@<TRIPOS>BOND
     1    1    2 1
     2    1   34 1
     3    1   35 1
     4    1   36 1
     5    2    7 ar
     6    2    3 ar
     7    3    4 ar
     8    3   37 1
     9    4    5 ar
    10    4   38 1
    11    5    6 ar
    12    5   21 1
    13    6    7 ar
    14    6   39 1
    15    7    8 1
    16    8   17 am
    17    8    9 1
    18    9   10 1
    19    9   40 1
    20    9   41 1
    21   10   15 ar
    22   10   11 ar
    23   11   12 ar
    24   11   42 1
    25   12   13 ar
    26   13   14 ar
    27   13   20 1
    28   14   15 ar
    29   15   16 1
    30   16   17 am
    31   16   19 1
    32   17   18 2
    33   19   43 1
    34   19   44 1
    35   19   45 1
    36   20   46 1
    37   20   47 1
    38   21   22 am
    39   21   48 1
    40   22   23 2
    41   22   24 1
    42   24   29 ar
    43   24   25 ar
    44   25   26 ar
    45   25   49 1
    46   26   27 ar
    47   26   50 1
    48   27   28 ar
    49   27   51 1
    50   28   29 ar
    51   28   30 1
    52   29   52 1
    53   30   31 1
    54   30   32 1
    55   30   33 1
@<TRIPOS>MOLECULE
CHEMBL104244
   61    64     0     0     0
SMALL
USER_CHARGES

@<TRIPOS>ATOM
      1 C1         -0.0178    1.4608    0.0101 C.3       1 <0>         0.0704
      2 N1          0.0021   -0.0041    0.0020 N.am      1 <0>        -0.5070
      3 C2         -1.1808   -0.6992    0.0039 C.ar      1 <0>         0.4685
      4 C3         -1.1793   -2.1109   -0.0037 C.ar      1 <0>        -0.2761
      5 C4          0.0431   -2.8209   -0.0135 C.2       1 <0>         0.0253
      6 C5          1.2184   -2.1187   -0.0153 C.2       1 <0>        -0.1560
      7 C6          1.1813   -0.6547   -0.0127 C.2       1 <0>         0.5558
      8 O1          2.2223   -0.0221   -0.0197 O.2       1 <0>        -0.4970
      9 C7          2.5161   -2.8335   -0.0249 C.ar      1 <0>        -0.0148
     10 C8          3.1327   -3.1828    1.1772 C.ar      1 <0>        -0.0064
     11 C9          4.3424   -3.8490    1.1613 C.ar      1 <0>        -0.1052
     12 C10         4.9428   -4.1701   -0.0429 C.ar      1 <0>        -0.0851
     13 C11         4.3369   -3.8268   -1.2380 C.ar      1 <0>        -0.1051
     14 C12         3.1243   -3.1655   -1.2361 C.ar      1 <0>        -0.0063
     15 Cl1         2.3618   -2.7423   -2.7372 Cl        1 <0>        -0.0513
     16 Cl2         2.3811   -2.7803    2.6894 Cl        1 <0>        -0.0513
     17 C13        -2.4105   -2.7832   -0.0019 C.ar      1 <0>         0.2664
     18 N2         -3.5204   -2.0689    0.0069 N.ar      1 <0>        -0.5839
     19 C14        -3.4836   -0.7410    0.0139 C.ar      1 <0>         0.6087
     20 N3         -2.3465   -0.0625    0.0125 N.ar      1 <0>        -0.6001
     21 N4         -4.6746   -0.0428    0.0225 N.pl3     1 <0>        -0.6942
     22 C15        -5.9482   -0.7668    0.0237 C.3       1 <0>         0.1371
     23 C16        -7.1044    0.2351    0.0338 C.3       1 <0>        -0.1328
     24 C17        -8.4345   -0.5211    0.0350 C.3       1 <0>        -0.1443
     25 C18        -9.5908    0.4809    0.0451 C.3       1 <0>        -0.0083
     26 N5        -10.8678   -0.2451    0.0463 N.4       1 <0>        -0.3868
     27 C19       -11.0082   -0.9904   -1.2116 C.3       1 <0>        -0.0069
     28 C20       -12.3298   -1.7619   -1.2029 C.3       1 <0>         0.0243
     29 N6        -13.4444   -0.8168   -1.0463 N.3       1 <0>        -0.5440
     30 C21       -13.3042   -0.0456    0.1969 C.3       1 <0>         0.0238
     31 C22       -11.9746    0.7117    0.1767 C.3       1 <0>        -0.0019
     32 C23       -14.7363   -1.5145   -1.0901 C.3       1 <0>         0.0192
     33 H1          1.0048    1.8381    0.0023 H         1 <0>         0.1016
     34 H2         -0.5450    1.8219   -0.8730 H         1 <0>         0.0796
     35 H3         -0.5280    1.8123    0.9069 H         1 <0>         0.0796
     36 H4          0.0498   -3.9008   -0.0190 H         1 <0>         0.1509
     37 H5          4.8208   -4.1196    2.0909 H         1 <0>         0.1449
     38 H6          5.8889   -4.6908   -0.0499 H         1 <0>         0.1470
     39 H7          4.8111   -4.0800   -2.1748 H         1 <0>         0.1449
     40 H8         -2.4493   -3.8625   -0.0079 H         1 <0>         0.1866
     41 H9         -4.6681    0.9272    0.0277 H         1 <0>         0.4174
     42 H10        -6.0137   -1.3883   -0.8694 H         1 <0>         0.0743
     43 H11        -6.0065   -1.3979    0.9105 H         1 <0>         0.0743
     44 H12        -7.0389    0.8565    0.9269 H         1 <0>         0.0833
     45 H13        -7.0461    0.8662   -0.8531 H         1 <0>         0.0834
     46 H14        -8.5000   -1.1425   -0.8581 H         1 <0>         0.0922
     47 H15        -8.4928   -1.1521    0.9219 H         1 <0>         0.0919
     48 H16        -9.5253    1.1023    0.9382 H         1 <0>         0.1328
     49 H17        -9.5324    1.1119   -0.8417 H         1 <0>         0.1324
     50 H18       -10.9999   -0.2935   -2.0496 H         1 <0>         0.1381
     51 H19       -10.1793   -1.6909   -1.3133 H         1 <0>         0.1373
     52 H20       -12.4411   -2.3031   -2.1424 H         1 <0>         0.1239
     53 H21       -12.3329   -2.4686   -0.3730 H         1 <0>         0.0607
     54 H22       -14.1264    0.6653    0.2787 H         1 <0>         0.1241
     55 H23       -13.3233   -0.7240    1.0499 H         1 <0>         0.0606
     56 H24       -11.8621    1.2732    1.1042 H         1 <0>         0.1361
     57 H25       -11.9613    1.3999   -0.6685 H         1 <0>         0.1379
     58 H26       -14.7820   -2.2456   -0.2829 H         1 <0>         0.0398
     59 H27       -15.5438   -0.7919   -0.9719 H         1 <0>         0.0841
     60 H28       -14.8419   -2.0239   -2.0480 H         1 <0>         0.0847
     61 H29       -10.8874   -0.8895    0.8225 H         1 <0>         0.4208
@<TRIPOS>BOND
     1    1    2 1
     2    1   33 1
     3    1   34 1
     4    1   35 1
     5    2    7 am
     6    2    3 1
     7    3   20 ar
     8    3    4 ar
     9    4    5 1
    10    4   17 ar
    11    5    6 2
    12    5   36 1
    13    6    7 1
    14    6    9 1
    15    7    8 2
    16    9   14 ar
    17    9   10 ar
    18   10   11 ar
    19   10   16 1
    20   11   12 ar
    21   11   37 1
    22   12   13 ar
    23   12   38 1
    24   13   14 ar
    25   13   39 1
    26   14   15 1
    27   17   18 ar
    28   17   40 1
    29   18   19 ar
    30   19   20 ar
    31   19   21 1
    32   21   22 1
    33   21   41 1
    34   22   23 1
    35   22   42 1
    36   22   43 1
    37   23   24 1
    38   23   44 1
    39   23   45 1
    40   24   25 1
    41   24   46 1
    42   24   47 1
    43   25   26 1
    44   25   48 1
    45   25   49 1
    46   26   31 1
    47   26   27 1
    48   26   61 1
    49   27   28 1
    50   27   50 1
    51   27   51 1
    52   28   29 1
    53   28   52 1
    54   28   53 1
    55   29   30 1
    56   29   32 1
    57   30   31 1
    58   30   54 1
    59   30   55 1
    60   31   56 1
    61   31   57 1
    62   32   58 1
    63   32   59 1
    64   32   60 1
@<TRIPOS>MOLECULE
CHEMBL104244__1
   61    64     0     0     0
SMALL
USER_CHARGES

@<TRIPOS>ATOM
      1 C1         -0.0178    1.4608    0.0101 C.3       1 <0>         0.0708
      2 N1          0.0021   -0.0041    0.0020 N.am      1 <0>        -0.5072
      3 C2         -1.1808   -0.6992    0.0039 C.ar      1 <0>         0.4687
      4 C3         -1.1793   -2.1109   -0.0037 C.ar      1 <0>        -0.2806
      5 C4          0.0431   -2.8209   -0.0135 C.2       1 <0>         0.0288
      6 C5          1.2184   -2.1187   -0.0153 C.2       1 <0>        -0.1612
      7 C6          1.1813   -0.6547   -0.0127 C.2       1 <0>         0.5567
      8 O1          2.2223   -0.0221   -0.0197 O.2       1 <0>        -0.5000
      9 C7          2.5161   -2.8335   -0.0249 C.ar      1 <0>        -0.0124
     10 C8          3.1327   -3.1828    1.1772 C.ar      1 <0>        -0.0067
     11 C9          4.3424   -3.8490    1.1613 C.ar      1 <0>        -0.1055
     12 C10         4.9428   -4.1701   -0.0429 C.ar      1 <0>        -0.0862
     13 C11         4.3369   -3.8268   -1.2380 C.ar      1 <0>        -0.1056
     14 C12         3.1243   -3.1655   -1.2361 C.ar      1 <0>        -0.0066
     15 Cl1         2.3618   -2.7423   -2.7372 Cl        1 <0>        -0.0515
     16 Cl2         2.3811   -2.7803    2.6894 Cl        1 <0>        -0.0510
     17 C13        -2.4105   -2.7832   -0.0019 C.ar      1 <0>         0.2668
     18 N2         -3.5204   -2.0689    0.0069 N.ar      1 <0>        -0.5823
     19 C14        -3.4836   -0.7410    0.0139 C.ar      1 <0>         0.6099
     20 N3         -2.3465   -0.0625    0.0125 N.ar      1 <0>        -0.6021
     21 N4         -4.6746   -0.0428    0.0225 N.pl3     1 <0>        -0.6912
     22 C15        -5.9482   -0.7668    0.0237 C.3       1 <0>         0.1372
     23 C16        -7.1044    0.2351    0.0338 C.3       1 <0>        -0.1352
     24 C17        -8.4345   -0.5211    0.0350 C.3       1 <0>        -0.1127
     25 C18        -9.5908    0.4809    0.0451 C.3       1 <0>         0.0546
     26 N5        -10.8678   -0.2451    0.0463 N.3       1 <0>        -0.5397
     27 C19       -11.0582   -0.9781   -1.2133 C.3       1 <0>         0.0200
     28 C20       -12.3681   -1.7666   -1.1482 C.3       1 <0>        -0.0029
     29 N6        -13.4866   -0.8407   -0.9266 N.4       1 <0>        -0.3886
     30 C21       -13.2947   -0.1341    0.3468 C.3       1 <0>        -0.0025
     31 C22       -11.9926    0.6679    0.2941 C.3       1 <0>         0.0249
     32 C23       -14.7457   -1.5961   -0.8822 C.3       1 <0>        -0.0459
     33 H1          1.0048    1.8381    0.0023 H         1 <0>         0.1009
     34 H2         -0.5450    1.8219   -0.8730 H         1 <0>         0.0791
     35 H3         -0.5280    1.8123    0.9069 H         1 <0>         0.0794
     36 H4          0.0498   -3.9008   -0.0190 H         1 <0>         0.1499
     37 H5          4.8208   -4.1196    2.0909 H         1 <0>         0.1445
     38 H6          5.8889   -4.6908   -0.0499 H         1 <0>         0.1464
     39 H7          4.8111   -4.0800   -2.1748 H         1 <0>         0.1444
     40 H8         -2.4493   -3.8625   -0.0079 H         1 <0>         0.1857
     41 H9         -4.6681    0.9272    0.0277 H         1 <0>         0.4166
     42 H10        -6.0137   -1.3883   -0.8694 H         1 <0>         0.0711
     43 H11        -6.0065   -1.3979    0.9105 H         1 <0>         0.0733
     44 H12        -7.0389    0.8565    0.9269 H         1 <0>         0.0755
     45 H13        -7.0461    0.8662   -0.8531 H         1 <0>         0.0719
     46 H14        -8.5000   -1.1425   -0.8581 H         1 <0>         0.0679
     47 H15        -8.4928   -1.1521    0.9219 H         1 <0>         0.0817
     48 H16        -9.5253    1.1023    0.9382 H         1 <0>         0.0901
     49 H17        -9.5324    1.1119   -0.8417 H         1 <0>         0.0479
     50 H18       -11.0997   -0.2717   -2.0424 H         1 <0>         0.0606
     51 H19       -10.2264   -1.6665   -1.3628 H         1 <0>         0.1261
     52 H20       -12.5183   -2.2997   -2.0870 H         1 <0>         0.1357
     53 H21       -12.3209   -2.4823   -0.3275 H         1 <0>         0.1379
     54 H22       -14.1319    0.5430    0.5163 H         1 <0>         0.1359
     55 H23       -13.2428   -0.8582    1.1598 H         1 <0>         0.1378
     56 H24       -11.8424    1.1805    1.2443 H         1 <0>         0.1237
     57 H25       -12.0495    1.4014   -0.5102 H         1 <0>         0.0604
     58 H26       -14.7066   -2.3201   -0.0684 H         1 <0>         0.1233
     59 H27       -15.5759   -0.9091   -0.7178 H         1 <0>         0.1243
     60 H28       -14.8890   -2.1194   -1.8276 H         1 <0>         0.1244
     61 H29       -13.5230   -0.1710   -1.6804 H         1 <0>         0.4224
@<TRIPOS>BOND
     1    1    2 1
     2    1   33 1
     3    1   34 1
     4    1   35 1
     5    2    7 am
     6    2    3 1
     7    3   20 ar
     8    3    4 ar
     9    4    5 1
    10    4   17 ar
    11    5    6 2
    12    5   36 1
    13    6    7 1
    14    6    9 1
    15    7    8 2
    16    9   14 ar
    17    9   10 ar
    18   10   11 ar
    19   10   16 1
    20   11   12 ar
    21   11   37 1
    22   12   13 ar
    23   12   38 1
    24   13   14 ar
    25   13   39 1
    26   14   15 1
    27   17   18 ar
    28   17   40 1
    29   18   19 ar
    30   19   20 ar
    31   19   21 1
    32   21   22 1
    33   21   41 1
    34   22   23 1
    35   22   42 1
    36   22   43 1
    37   23   24 1
    38   23   44 1
    39   23   45 1
    40   24   25 1
    41   24   46 1
    42   24   47 1
    43   25   26 1
    44   25   48 1
    45   25   49 1
    46   26   31 1
    47   26   27 1
    48   27   28 1
    49   27   50 1
    50   27   51 1
    51   28   29 1
    52   28   52 1
    53   28   53 1
    54   29   30 1
    55   29   32 1
    56   29   61 1
    57   30   31 1
    58   30   54 1
    59   30   55 1
    60   31   56 1
    61   31   57 1
    62   32   58 1
    63   32   59 1
    64   32   60 1
@<TRIPOS>MOLECULE
CHEMBL106232
   64    67     0     0     0
SMALL
USER_CHARGES

@<TRIPOS>ATOM
      1 C1         -0.0178    1.4608    0.0101 C.3       1 <0>         0.0711
      2 N1          0.0021   -0.0041    0.0020 N.am      1 <0>        -0.5073
      3 C2         -1.1808   -0.6992    0.0039 C.ar      1 <0>         0.4686
      4 C3         -1.1793   -2.1109   -0.0037 C.ar      1 <0>        -0.2818
      5 C4          0.0431   -2.8209   -0.0135 C.2       1 <0>         0.0301
      6 C5          1.2184   -2.1187   -0.0153 C.2       1 <0>        -0.1630
      7 C6          1.1813   -0.6547   -0.0127 C.2       1 <0>         0.5571
      8 O1          2.2223   -0.0221   -0.0197 O.2       1 <0>        -0.5011
      9 C7          2.5161   -2.8335   -0.0249 C.ar      1 <0>        -0.0116
     10 C8          3.1327   -3.1828    1.1772 C.ar      1 <0>        -0.0068
     11 C9          4.3424   -3.8490    1.1613 C.ar      1 <0>        -0.1058
     12 C10         4.9428   -4.1701   -0.0429 C.ar      1 <0>        -0.0865
     13 C11         4.3369   -3.8268   -1.2380 C.ar      1 <0>        -0.1056
     14 C12         3.1243   -3.1655   -1.2361 C.ar      1 <0>        -0.0067
     15 Cl1         2.3618   -2.7423   -2.7372 Cl        1 <0>        -0.0510
     16 Cl2         2.3811   -2.7803    2.6894 Cl        1 <0>        -0.0514
     17 C13        -2.4105   -2.7832   -0.0019 C.ar      1 <0>         0.2673
     18 N2         -3.5204   -2.0689    0.0069 N.ar      1 <0>        -0.5816
     19 C14        -3.4836   -0.7410    0.0139 C.ar      1 <0>         0.6101
     20 N3         -2.3465   -0.0625    0.0125 N.ar      1 <0>        -0.6029
     21 N4         -4.6746   -0.0428    0.0225 N.pl3     1 <0>        -0.6900
     22 C15        -5.9482   -0.7668    0.0237 C.3       1 <0>         0.1344
     23 C16        -7.1044    0.2351    0.0338 C.3       1 <0>        -0.1330
     24 C17        -8.4345   -0.5211    0.0350 C.3       1 <0>        -0.1156
     25 C18        -9.5908    0.4809    0.0451 C.3       1 <0>        -0.1171
     26 C19       -10.9209   -0.2753    0.0464 C.3       1 <0>         0.0535
     27 N5        -12.0310    0.6867    0.0561 N.3       1 <0>        -0.5403
     28 C20       -12.0628    1.4416    1.3167 C.3       1 <0>         0.0205
     29 C21       -13.1935    2.4713    1.2628 C.3       1 <0>        -0.0029
     30 N6        -14.4736    1.7825    1.0521 N.4       1 <0>        -0.3884
     31 C22       -14.4353    1.0532   -0.2223 C.3       1 <0>        -0.0026
     32 C23       -13.3149    0.0117   -0.1807 C.3       1 <0>         0.0247
     33 C24       -15.5609    2.7698    1.0185 C.3       1 <0>        -0.0459
     34 H1          1.0048    1.8381    0.0023 H         1 <0>         0.1006
     35 H2         -0.5450    1.8219   -0.8730 H         1 <0>         0.0791
     36 H3         -0.5280    1.8123    0.9069 H         1 <0>         0.0789
     37 H4          0.0498   -3.9008   -0.0190 H         1 <0>         0.1498
     38 H5          4.8208   -4.1196    2.0909 H         1 <0>         0.1442
     39 H6          5.8889   -4.6908   -0.0499 H         1 <0>         0.1462
     40 H7          4.8111   -4.0800   -2.1748 H         1 <0>         0.1443
     41 H8         -2.4493   -3.8625   -0.0079 H         1 <0>         0.1857
     42 H9         -4.6681    0.9272    0.0277 H         1 <0>         0.4161
     43 H10        -6.0137   -1.3883   -0.8694 H         1 <0>         0.0726
     44 H11        -6.0065   -1.3979    0.9105 H         1 <0>         0.0717
     45 H12        -7.0389    0.8565    0.9269 H         1 <0>         0.0705
     46 H13        -7.0461    0.8662   -0.8531 H         1 <0>         0.0728
     47 H14        -8.5000   -1.1425   -0.8581 H         1 <0>         0.0720
     48 H15        -8.4928   -1.1521    0.9219 H         1 <0>         0.0683
     49 H16        -9.5253    1.1023    0.9382 H         1 <0>         0.0636
     50 H17        -9.5324    1.1119   -0.8417 H         1 <0>         0.0772
     51 H18       -10.9864   -0.8967   -0.8467 H         1 <0>         0.0898
     52 H19       -10.9792   -0.9064    0.9332 H         1 <0>         0.0477
     53 H20       -12.2343    0.7563    2.1468 H         1 <0>         0.0605
     54 H21       -11.1110    1.9537    1.4581 H         1 <0>         0.1251
     55 H22       -13.2279    3.0227    2.2024 H         1 <0>         0.1354
     56 H23       -13.0145    3.1647    0.4410 H         1 <0>         0.1374
     57 H24       -15.3903    0.5532   -0.3836 H         1 <0>         0.1359
     58 H25       -14.2500    1.7539   -1.0364 H         1 <0>         0.1375
     59 H26       -13.2766   -0.5195   -1.1317 H         1 <0>         0.1237
     60 H27       -13.5071   -0.6972    0.6247 H         1 <0>         0.0604
     61 H28       -15.3881    3.4729    0.2037 H         1 <0>         0.1232
     62 H29       -16.5109    2.2589    0.8622 H         1 <0>         0.1244
     63 H30       -15.5903    3.3102    1.9646 H         1 <0>         0.1243
     64 H31       -14.6336    1.1322    1.8069 H         1 <0>         0.4224
@<TRIPOS>BOND
     1    1    2 1
     2    1   34 1
     3    1   35 1
     4    1   36 1
     5    2    7 am
     6    2    3 1
     7    3   20 ar
     8    3    4 ar
     9    4    5 1
    10    4   17 ar
    11    5    6 2
    12    5   37 1
    13    6    7 1
    14    6    9 1
    15    7    8 2
    16    9   14 ar
    17    9   10 ar
    18   10   11 ar
    19   10   16 1
    20   11   12 ar
    21   11   38 1
    22   12   13 ar
    23   12   39 1
    24   13   14 ar
    25   13   40 1
    26   14   15 1
    27   17   18 ar
    28   17   41 1
    29   18   19 ar
    30   19   20 ar
    31   19   21 1
    32   21   22 1
    33   21   42 1
    34   22   23 1
    35   22   43 1
    36   22   44 1
    37   23   24 1
    38   23   45 1
    39   23   46 1
    40   24   25 1
    41   24   47 1
    42   24   48 1
    43   25   26 1
    44   25   49 1
    45   25   50 1
    46   26   27 1
    47   26   51 1
    48   26   52 1
    49   27   32 1
    50   27   28 1
    51   28   29 1
    52   28   53 1
    53   28   54 1
    54   29   30 1
    55   29   55 1
    56   29   56 1
    57   30   31 1
    58   30   33 1
    59   30   64 1
    60   31   32 1
    61   31   57 1
    62   31   58 1
    63   32   59 1
    64   32   60 1
    65   33   61 1
    66   33   62 1
    67   33   63 1
@<TRIPOS>MOLECULE
CHEMBL106232__1
   64    67     0     0     0
SMALL
USER_CHARGES

@<TRIPOS>ATOM
      1 C1         -0.0178    1.4608    0.0101 C.3       1 <0>         0.0709
      2 N1          0.0021   -0.0041    0.0020 N.am      1 <0>        -0.5072
      3 C2         -1.1808   -0.6992    0.0039 C.ar      1 <0>         0.4684
      4 C3         -1.1793   -2.1109   -0.0037 C.ar      1 <0>        -0.2787
      5 C4          0.0431   -2.8209   -0.0135 C.2       1 <0>         0.0276
      6 C5          1.2184   -2.1187   -0.0153 C.2       1 <0>        -0.1592
      7 C6          1.1813   -0.6547   -0.0127 C.2       1 <0>         0.5564
      8 O1          2.2223   -0.0221   -0.0197 O.2       1 <0>        -0.4989
      9 C7          2.5161   -2.8335   -0.0249 C.ar      1 <0>        -0.0133
     10 C8          3.1327   -3.1828    1.1772 C.ar      1 <0>        -0.0066
     11 C9          4.3424   -3.8490    1.1613 C.ar      1 <0>        -0.1054
     12 C10         4.9428   -4.1701   -0.0429 C.ar      1 <0>        -0.0857
     13 C11         4.3369   -3.8268   -1.2380 C.ar      1 <0>        -0.1054
     14 C12         3.1243   -3.1655   -1.2361 C.ar      1 <0>        -0.0065
     15 Cl1         2.3618   -2.7423   -2.7372 Cl        1 <0>        -0.0513
     16 Cl2         2.3811   -2.7803    2.6894 Cl        1 <0>        -0.0513
     17 C13        -2.4105   -2.7832   -0.0019 C.ar      1 <0>         0.2669
     18 N2         -3.5204   -2.0689    0.0069 N.ar      1 <0>        -0.5825
     19 C14        -3.4836   -0.7410    0.0139 C.ar      1 <0>         0.6092
     20 N3         -2.3465   -0.0625    0.0125 N.ar      1 <0>        -0.6017
     21 N4         -4.6746   -0.0428    0.0225 N.pl3     1 <0>        -0.6926
     22 C15        -5.9482   -0.7668    0.0237 C.3       1 <0>         0.1352
     23 C16        -7.1044    0.2351    0.0338 C.3       1 <0>        -0.1355
     24 C17        -8.4345   -0.5211    0.0350 C.3       1 <0>        -0.1126
     25 C18        -9.5908    0.4809    0.0451 C.3       1 <0>        -0.1487
     26 C19       -10.9209   -0.2753    0.0464 C.3       1 <0>        -0.0094
     27 N5        -12.0310    0.6867    0.0561 N.4       1 <0>        -0.3870
     28 C20       -12.0114    1.4439    1.3146 C.3       1 <0>        -0.0062
     29 C21       -13.1564    2.4591    1.3171 C.3       1 <0>         0.0243
     30 N6        -14.4358    1.7507    1.1715 N.3       1 <0>        -0.5438
     31 C22       -14.4605    0.9681   -0.0723 C.3       1 <0>         0.0237
     32 C23       -13.3048   -0.0349   -0.0634 C.3       1 <0>        -0.0021
     33 C24       -15.5657    2.6878    1.2263 C.3       1 <0>         0.0192
     34 H1          1.0048    1.8381    0.0023 H         1 <0>         0.1012
     35 H2         -0.5450    1.8219   -0.8730 H         1 <0>         0.0791
     36 H3         -0.5280    1.8123    0.9069 H         1 <0>         0.0792
     37 H4          0.0498   -3.9008   -0.0190 H         1 <0>         0.1504
     38 H5          4.8208   -4.1196    2.0909 H         1 <0>         0.1447
     39 H6          5.8889   -4.6908   -0.0499 H         1 <0>         0.1466
     40 H7          4.8111   -4.0800   -2.1748 H         1 <0>         0.1446
     41 H8         -2.4493   -3.8625   -0.0079 H         1 <0>         0.1863
     42 H9         -4.6681    0.9272    0.0277 H         1 <0>         0.4162
     43 H10        -6.0137   -1.3883   -0.8694 H         1 <0>         0.0731
     44 H11        -6.0065   -1.3979    0.9105 H         1 <0>         0.0733
     45 H12        -7.0389    0.8565    0.9269 H         1 <0>         0.0750
     46 H13        -7.0461    0.8662   -0.8531 H         1 <0>         0.0750
     47 H14        -8.5000   -1.1425   -0.8581 H         1 <0>         0.0799
     48 H15        -8.4928   -1.1521    0.9219 H         1 <0>         0.0800
     49 H16        -9.5253    1.1023    0.9382 H         1 <0>         0.0880
     50 H17        -9.5324    1.1119   -0.8417 H         1 <0>         0.0874
     51 H18       -10.9864   -0.8967   -0.8467 H         1 <0>         0.1325
     52 H19       -10.9792   -0.9064    0.9332 H         1 <0>         0.1321
     53 H20       -12.1321    0.7581    2.1531 H         1 <0>         0.1381
     54 H21       -11.0605    1.9684    1.4082 H         1 <0>         0.1363
     55 H22       -13.1511    3.0109    2.2571 H         1 <0>         0.1236
     56 H23       -13.0286    3.1535    0.4867 H         1 <0>         0.0602
     57 H24       -15.4067    0.4320   -0.1460 H         1 <0>         0.1241
     58 H25       -14.3542    1.6379   -0.9256 H         1 <0>         0.0603
     59 H26       -13.3128   -0.6067   -0.9914 H         1 <0>         0.1362
     60 H27       -13.4189   -0.7131    0.7822 H         1 <0>         0.1380
     61 H28       -15.4747    3.4144    0.4189 H         1 <0>         0.0397
     62 H29       -16.5000    2.1374    1.1161 H         1 <0>         0.0843
     63 H30       -15.5609    3.2072    2.1847 H         1 <0>         0.0846
     64 H31       -11.9311    1.3231   -0.7205 H         1 <0>         0.4200
@<TRIPOS>BOND
     1    1    2 1
     2    1   34 1
     3    1   35 1
     4    1   36 1
     5    2    7 am
     6    2    3 1
     7    3   20 ar
     8    3    4 ar
     9    4    5 1
    10    4   17 ar
    11    5    6 2
    12    5   37 1
    13    6    7 1
    14    6    9 1
    15    7    8 2
    16    9   14 ar
    17    9   10 ar
    18   10   11 ar
    19   10   16 1
    20   11   12 ar
    21   11   38 1
    22   12   13 ar
    23   12   39 1
    24   13   14 ar
    25   13   40 1
    26   14   15 1
    27   17   18 ar
    28   17   41 1
    29   18   19 ar
    30   19   20 ar
    31   19   21 1
    32   21   22 1
    33   21   42 1
    34   22   23 1
    35   22   43 1
    36   22   44 1
    37   23   24 1
    38   23   45 1
    39   23   46 1
    40   24   25 1
    41   24   47 1
    42   24   48 1
    43   25   26 1
    44   25   49 1
    45   25   50 1
    46   26   27 1
    47   26   51 1
    48   26   52 1
    49   27   32 1
    50   27   28 1
    51   27   64 1
    52   28   29 1
    53   28   53 1
    54   28   54 1
    55   29   30 1
    56   29   55 1
    57   29   56 1
    58   30   31 1
    59   30   33 1
    60   31   32 1
    61   31   57 1
    62   31   58 1
    63   32   59 1
    64   32   60 1
    65   33   61 1
    66   33   62 1
    67   33   63 1
@<TRIPOS>MOLECULE
CHEMBL477560
   35    37     0     0     0
SMALL
USER_CHARGES

@<TRIPOS>ATOM
      1 C1         -0.0167    1.3779    0.0096 C.ar      1 <0>        -0.1073
      2 C2          1.1696    2.0886    0.0021 C.ar      1 <0>        -0.1259
      3 C3          2.3802    1.4154   -0.0130 C.ar      1 <0>         0.0790
      4 C4          2.3990    0.0236   -0.0206 C.ar      1 <0>         0.0844
      5 C5          1.2071   -0.6822   -0.0130 C.ar      1 <0>        -0.1234
      6 C6          0.0021   -0.0041    0.0020 C.ar      1 <0>        -0.0729
      7 C7         -1.2936   -0.7736    0.0102 C.3       1 <0>        -0.0364
      8 C8         -1.7390   -1.0225   -1.4078 C.2       1 <0>        -0.1573
      9 C9         -1.4341   -2.1703   -2.0060 C.2       1 <0>        -0.0892
     10 C10        -1.8564   -2.3638   -3.4091 C.ar      1 <0>        -0.1248
     11 C11        -1.8317   -3.6209   -4.0061 C.ar      1 <0>        -0.0628
     12 C12        -2.2468   -3.7648   -5.3150 C.ar      1 <0>        -0.1572
     13 C13        -2.6882   -2.6628   -6.0349 C.ar      1 <0>         0.1172
     14 C14        -2.7110   -1.4016   -5.4470 C.ar      1 <0>         0.0560
     15 C15        -2.2901   -1.2477   -4.1366 C.ar      1 <0>         0.1186
     16 O1         -2.2649   -0.0255   -3.5433 O.3       1 <0>        -0.2965
     17 C16        -2.5329    0.0270   -2.1397 C.3       1 <0>         0.1012
     18 O2         -3.1447   -0.3243   -6.1567 O.3       1 <0>        -0.4732
     19 O3         -3.1000   -2.8165   -7.3215 O.3       1 <0>        -0.4829
     20 O4          3.5850   -0.6417   -0.0359 O.3       1 <0>        -0.4871
     21 O5          3.5476    2.1129   -0.0209 O.3       1 <0>        -0.4875
     22 H1         -0.9598    1.9038    0.0259 H         1 <0>         0.1304
     23 H2          1.1522    3.1684    0.0077 H         1 <0>         0.1354
     24 H3          1.2190   -1.7621   -0.0189 H         1 <0>         0.1323
     25 H4         -1.1467   -1.7271    0.5175 H         1 <0>         0.0882
     26 H5         -2.0555   -0.1967    0.5344 H         1 <0>         0.0888
     27 H6         -0.8913   -2.9416   -1.4799 H         1 <0>         0.1353
     28 H7         -1.4890   -4.4798   -3.4481 H         1 <0>         0.1386
     29 H8         -2.2276   -4.7389   -5.7810 H         1 <0>         0.1397
     30 H9         -3.5958   -0.1422   -1.9672 H         1 <0>         0.0727
     31 H10        -2.2610    1.0119   -1.7602 H         1 <0>         0.1152
     32 H11        -4.0944   -0.1593   -6.0801 H         1 <0>         0.3844
     33 H12        -4.0436   -3.0074   -7.4123 H         1 <0>         0.3915
     34 H13         3.9367   -0.8389    0.8430 H         1 <0>         0.3879
     35 H14         3.8938    2.3101    0.8602 H         1 <0>         0.3878
@<TRIPOS>BOND
     1    1    6 ar
     2    1    2 ar
     3    1   22 1
     4    2    3 ar
     5    2   23 1
     6    3    4 ar
     7    3   21 1
     8    4    5 ar
     9    4   20 1
    10    5    6 ar
    11    5   24 1
    12    6    7 1
    13    7    8 1
    14    7   25 1
    15    7   26 1
    16    8   17 1
    17    8    9 2
    18    9   10 1
    19    9   27 1
    20   10   15 ar
    21   10   11 ar
    22   11   12 ar
    23   11   28 1
    24   12   13 ar
    25   12   29 1
    26   13   14 ar
    27   13   19 1
    28   14   15 ar
    29   14   18 1
    30   15   16 1
    31   16   17 1
    32   17   30 1
    33   17   31 1
    34   18   32 1
    35   19   33 1
    36   20   34 1
    37   21   35 1
@<TRIPOS>MOLECULE
CHEMBL110403
   67    71     0     0     0
SMALL
USER_CHARGES

@<TRIPOS>ATOM
      1 C1         -4.0367   -4.8667    0.6052 C.3       1 <0>         0.0583
      2 N1         -5.1586   -4.3645   -0.1919 N.am      1 <0>        -0.5202
      3 C2         -5.2756   -3.0146   -0.4312 C.ar      1 <0>         0.2705
      4 C3         -4.3441   -2.1138    0.0713 C.ar      1 <0>        -0.2810
      5 C4         -4.5058   -0.7620   -0.1982 C.ar      1 <0>         0.4345
      6 N2         -5.5288   -0.3202   -0.9225 N.ar      1 <0>        -0.5468
      7 C5         -6.4367   -1.1308   -1.4204 C.ar      1 <0>         0.2263
      8 C6         -6.3496   -2.5106   -1.1972 C.ar      1 <0>        -0.2272
      9 C7         -7.3180   -3.3974   -1.7244 C.2       1 <0>         0.0212
     10 C8         -7.1955   -4.7383   -1.4808 C.2       1 <0>        -0.1586
     11 C9         -6.0648   -5.2288   -0.6895 C.2       1 <0>         0.5509
     12 O1         -5.9469   -6.4221   -0.4744 O.2       1 <0>        -0.5075
     13 C10        -8.1954   -5.6887   -2.0211 C.ar      1 <0>        -0.0121
     14 C11        -9.3298   -6.0116   -1.2753 C.ar      1 <0>        -0.0074
     15 C12       -10.2581   -6.8983   -1.7847 C.ar      1 <0>        -0.1060
     16 C13       -10.0653   -7.4658   -3.0314 C.ar      1 <0>        -0.0871
     17 C14        -8.9430   -7.1500   -3.7759 C.ar      1 <0>        -0.1060
     18 C15        -8.0099   -6.2604   -3.2805 C.ar      1 <0>        -0.0073
     19 Cl1        -6.6057   -5.8597   -4.2194 Cl        1 <0>        -0.0513
     20 Cl2        -9.5733   -5.3008    0.2897 Cl        1 <0>        -0.0509
     21 N3         -3.5817    0.1461    0.2987 N.pl3     1 <0>        -0.6546
     22 C16        -3.8022    1.5206    0.1517 C.ar      1 <0>         0.1288
     23 C17        -2.7311    2.3764   -0.0699 C.ar      1 <0>        -0.1085
     24 C18        -2.9496    3.7322   -0.2148 C.ar      1 <0>        -0.1284
     25 C19        -4.2384    4.2395   -0.1386 C.ar      1 <0>         0.1076
     26 C20        -5.3089    3.3854    0.0827 C.ar      1 <0>        -0.1893
     27 C21        -5.0929    2.0286    0.2216 C.ar      1 <0>        -0.0698
     28 O2         -4.4526    5.5748   -0.2806 O.3       1 <0>        -0.3030
     29 C22        -5.8048    6.0282   -0.1909 C.3       1 <0>         0.0632
     30 C23        -5.8469    7.5466   -0.3740 C.3       1 <0>         0.0562
     31 N4         -5.3799    7.8902   -1.7237 N.3       1 <0>        -0.5326
     32 C24        -4.9755    9.3013   -1.7978 C.3       1 <0>         0.0266
     33 C25        -4.4410    9.6026   -3.1996 C.3       1 <0>        -0.0025
     34 N5         -5.4859    9.3221   -4.1931 N.4       1 <0>        -0.3881
     35 C26        -5.8617    7.9038   -4.1237 C.3       1 <0>        -0.0020
     36 C27        -6.4081    7.5883   -2.7296 C.3       1 <0>         0.0211
     37 C28        -4.9783    9.6286   -5.5371 C.3       1 <0>        -0.0458
     38 H1         -4.1048   -5.9516    0.6852 H         1 <0>         0.1056
     39 H2         -3.0979   -4.5962    0.1219 H         1 <0>         0.0789
     40 H3         -4.0728   -4.4258    1.6014 H         1 <0>         0.0793
     41 H4         -3.5087   -2.4598    0.6619 H         1 <0>         0.1450
     42 H5         -7.2529   -0.7307   -2.0036 H         1 <0>         0.1738
     43 H6         -8.1429   -3.0209   -2.3110 H         1 <0>         0.1459
     44 H7        -11.1362   -7.1493   -1.2084 H         1 <0>         0.1441
     45 H8        -10.7940   -8.1589   -3.4251 H         1 <0>         0.1461
     46 H9         -8.7984   -7.5966   -4.7485 H         1 <0>         0.1440
     47 H10        -2.7828   -0.1716    0.7480 H         1 <0>         0.4215
     48 H11        -1.7275    1.9817   -0.1285 H         1 <0>         0.1319
     49 H12        -2.1168    4.3978   -0.3871 H         1 <0>         0.1322
     50 H13        -6.3120    3.7813    0.1422 H         1 <0>         0.1263
     51 H14        -5.9269    1.3632    0.3895 H         1 <0>         0.1365
     52 H15        -6.4002    5.5517   -0.9697 H         1 <0>         0.0619
     53 H16        -6.2109    5.7687    0.7868 H         1 <0>         0.0739
     54 H17        -6.8695    7.9002   -0.2423 H         1 <0>         0.0710
     55 H18        -5.2008    8.0197    0.3655 H         1 <0>         0.0995
     56 H19        -5.8364    9.9375   -1.5923 H         1 <0>         0.0603
     57 H20        -4.1954    9.4952   -1.0616 H         1 <0>         0.1249
     58 H21        -4.1537   10.6523   -3.2610 H         1 <0>         0.1360
     59 H22        -3.5719    8.9759   -3.3996 H         1 <0>         0.1385
     60 H23        -6.6278    7.6940   -4.8702 H         1 <0>         0.1357
     61 H24        -4.9854    7.2857   -4.3189 H         1 <0>         0.1384
     62 H25        -6.6732    6.5325   -2.6732 H         1 <0>         0.1222
     63 H26        -7.2925    8.1964   -2.5394 H         1 <0>         0.0614
     64 H27        -4.1042    9.0116   -5.7449 H         1 <0>         0.1233
     65 H28        -5.7536    9.4205   -6.2745 H         1 <0>         0.1241
     66 H29        -4.7006   10.6814   -5.5892 H         1 <0>         0.1243
     67 H30        -6.2947    9.8939   -4.0009 H         1 <0>         0.4219
@<TRIPOS>BOND
     1    1    2 1
     2    1   38 1
     3    1   39 1
     4    1   40 1
     5    2   11 am
     6    2    3 1
     7    3    8 ar
     8    3    4 ar
     9    4    5 ar
    10    4   41 1
    11    5    6 ar
    12    5   21 1
    13    6    7 ar
    14    7    8 ar
    15    7   42 1
    16    8    9 1
    17    9   10 2
    18    9   43 1
    19   10   11 1
    20   10   13 1
    21   11   12 2
    22   13   18 ar
    23   13   14 ar
    24   14   15 ar
    25   14   20 1
    26   15   16 ar
    27   15   44 1
    28   16   17 ar
    29   16   45 1
    30   17   18 ar
    31   17   46 1
    32   18   19 1
    33   21   22 1
    34   21   47 1
    35   22   27 ar
    36   22   23 ar
    37   23   24 ar
    38   23   48 1
    39   24   25 ar
    40   24   49 1
    41   25   26 ar
    42   25   28 1
    43   26   27 ar
    44   26   50 1
    45   27   51 1
    46   28   29 1
    47   29   30 1
    48   29   52 1
    49   29   53 1
    50   30   31 1
    51   30   54 1
    52   30   55 1
    53   31   36 1
    54   31   32 1
    55   32   33 1
    56   32   56 1
    57   32   57 1
    58   33   34 1
    59   33   58 1
    60   33   59 1
    61   34   35 1
    62   34   37 1
    63   34   67 1
    64   35   36 1
    65   35   60 1
    66   35   61 1
    67   36   62 1
    68   36   63 1
    69   37   64 1
    70   37   65 1
    71   37   66 1
@<TRIPOS>MOLECULE
CHEMBL258694
   46    50     0     0     0
SMALL
USER_CHARGES

@<TRIPOS>ATOM
      1 C1         -0.8808    1.2408   -0.5778 C.3       1 <0>        -0.0598
      2 C2         -0.7240   -0.2456   -0.3855 C.2       1 <0>         0.1634
      3 N1         -1.1343   -1.1744   -1.2021 N.2       1 <0>        -0.2861
      4 N2         -0.8339   -2.3308   -0.7246 N.2       1 <0>        -0.2685
      5 C3         -0.2161   -2.1780    0.4235 C.2       1 <0>         0.2493
      6 O1         -0.1302   -0.8533    0.6573 O.3       1 <0>        -0.2220
      7 C4          0.2951   -3.2572    1.2947 C.2       1 <0>        -0.1013
      8 C5          0.9403   -3.0955    2.5075 C.2       1 <0>         0.1125
      9 N3          1.2511   -4.3076    2.9969 N.pl3     1 <0>        -0.2273
     10 C6          0.8136   -5.2748    2.1112 C.2       1 <0>        -0.1061
     11 C7          0.2102   -4.6407    1.0467 C.2       1 <0>        -0.0182
     12 C8         -0.4176   -5.3010   -0.1537 C.3       1 <0>        -0.0218
     13 C9         -1.8935   -4.9068   -0.2390 C.3       1 <0>        -0.1576
     14 C10         0.3060   -4.8461   -1.4227 C.3       1 <0>        -0.1566
     15 C11         1.0393   -6.6357    2.4318 C.2       1 <0>         0.5355
     16 N4          1.6575   -6.9387    3.5610 N.2       1 <0>        -0.6162
     17 C12         2.0732   -5.9953    4.4042 C.2       1 <0>         0.3441
     18 N5          1.8975   -4.7241    4.1701 N.2       1 <0>        -0.3544
     19 N6          0.6186   -7.6339    1.5761 N.pl3     1 <0>        -0.6138
     20 C13         0.7330   -8.9770    1.9569 C.ar      1 <0>         0.0628
     21 C14         0.9829   -9.9572    1.0062 C.ar      1 <0>        -0.0510
     22 C15         1.0875  -11.2802    1.4408 C.ar      1 <0>        -0.1354
     23 C16         1.3356  -12.5585    0.7717 C.2       1 <0>        -0.1974
     24 C17         1.3234  -13.5055    1.7230 C.2       1 <0>         0.0683
     25 N7          1.0877  -12.9362    2.9454 N.pl3     1 <0>        -0.5813
     26 H1          1.0336  -13.4209    3.7838 H         1 <0>         0.4218
     27 C18         0.9384  -11.5748    2.8096 C.ar      1 <0>         0.2766
     28 N8          0.7006  -10.5987    3.6751 N.ar      1 <0>        -0.4797
     29 C19         0.6030   -9.3431    3.2940 C.ar      1 <0>         0.1620
     30 H2         -0.0183    1.6301   -1.1188 H         1 <0>         0.1002
     31 H3         -1.7878    1.4397   -1.1486 H         1 <0>         0.1084
     32 H4         -0.9496    1.7277    0.3950 H         1 <0>         0.0937
     33 H5          1.1585   -2.1505    2.9827 H         1 <0>         0.1927
     34 H6         -0.3357   -6.3837   -0.0571 H         1 <0>         0.0610
     35 H7         -1.9753   -3.8241   -0.3357 H         1 <0>         0.0907
     36 H8         -2.3475   -5.3844   -1.1072 H         1 <0>         0.0641
     37 H9         -2.4090   -5.2308    0.6650 H         1 <0>         0.0486
     38 H10         1.3574   -5.1270   -1.3619 H         1 <0>         0.0486
     39 H11        -0.1481   -5.3238   -2.2909 H         1 <0>         0.0647
     40 H12         0.2242   -3.7635   -1.5193 H         1 <0>         0.0886
     41 H13         2.5733   -6.2933    5.3138 H         1 <0>         0.2247
     42 H14         0.2438   -7.4053    0.7112 H         1 <0>         0.4245
     43 H15         1.0927   -9.7043   -0.0380 H         1 <0>         0.1399
     44 H16         1.4971  -12.7106   -0.2852 H         1 <0>         0.1531
     45 H17         1.4766  -14.5605    1.5495 H         1 <0>         0.1808
     46 H18         0.4131   -8.5800    4.0342 H         1 <0>         0.1738
@<TRIPOS>BOND
     1    1    2 1
     2    1   30 1
     3    1   31 1
     4    1   32 1
     5    2    6 1
     6    2    3 2
     7    3    4 1
     8    4    5 2
     9    5    6 1
    10    5    7 1
    11    7   11 1
    12    7    8 2
    13    8    9 1
    14    8   33 1
    15    9   18 1
    16    9   10 1
    17   10   11 2
    18   10   15 1
    19   11   12 1
    20   12   13 1
    21   12   14 1
    22   12   34 1
    23   13   35 1
    24   13   36 1
    25   13   37 1
    26   14   38 1
    27   14   39 1
    28   14   40 1
    29   15   16 2
    30   15   19 1
    31   16   17 1
    32   17   18 2
    33   17   41 1
    34   19   20 1
    35   19   42 1
    36   20   29 ar
    37   20   21 ar
    38   21   22 ar
    39   21   43 1
    40   22   27 ar
    41   22   23 1
    42   23   24 2
    43   23   44 1
    44   24   25 1
    45   24   45 1
    46   25   26 1
    47   25   27 1
    48   27   28 ar
    49   28   29 ar
    50   29   46 1
@<TRIPOS>MOLECULE
CHEMBL496150
   54    58     0     0     0
SMALL
USER_CHARGES

@<TRIPOS>ATOM
      1 C1          0.0350    1.4532    0.1477 C.3       1 <0>        -0.0478
      2 N1          0.0428   -0.0153    0.1105 N.4       1 <0>        -0.3811
      3 C2         -1.3396   -0.5121    0.0982 C.3       1 <0>        -0.0518
      4 C3          0.7375   -0.4707   -1.1011 C.3       1 <0>         0.0075
      5 H1          0.2438   -0.0875   -1.9941 H         1 <0>         0.1546
      6 C4          2.2288   -0.0432   -1.0722 C.3       1 <0>        -0.1471
      7 C5          2.8795   -1.1239   -1.9713 C.3       1 <0>         0.1148
      8 N2          2.1482   -2.3652   -1.6588 N.pl3     1 <0>        -0.6380
      9 C6          0.8159   -2.0114   -1.1390 C.3       1 <0>         0.1091
     10 C7          2.6365   -3.6644   -1.8314 C.ar      1 <0>         0.2284
     11 C8          1.8359   -4.7559   -1.5007 C.ar      1 <0>        -0.1817
     12 C9          2.2975   -6.0308   -1.6632 C.ar      1 <0>        -0.0256
     13 C10         3.5842   -6.2497   -2.1659 C.ar      1 <0>         0.0277
     14 C11         4.3941   -5.1506   -2.5009 C.ar      1 <0>         0.0904
     15 C12         3.9120   -3.8606   -2.3358 C.ar      1 <0>        -0.1791
     16 N3          5.5880   -5.6753   -2.9618 N.pl3     1 <0>        -0.5836
     17 C13         5.4813   -7.0412   -2.8989 C.2       1 <0>         0.3953
     18 N4          4.3005   -7.3719   -2.4301 N.2       1 <0>        -0.5296
     19 C14         6.5322   -7.9929   -3.2971 C.2       1 <0>        -0.3041
     20 C15         6.3628   -9.3604   -3.0725 C.2       1 <0>         0.3730
     21 C16         7.4394  -10.2687   -3.4880 C.ar      1 <0>        -0.1539
     22 C17         7.3331  -11.6485   -3.2927 C.ar      1 <0>        -0.0491
     23 C18         8.3506  -12.4699   -3.6897 C.ar      1 <0>        -0.1482
     24 C19         9.4888  -11.9445   -4.2849 C.ar      1 <0>        -0.0465
     25 C20         9.6140  -10.5867   -4.4869 C.ar      1 <0>        -0.1651
     26 C21         8.5905   -9.7315   -4.0911 C.ar      1 <0>         0.2163
     27 N5          8.6961   -8.3688   -4.2855 N.am      1 <0>        -0.6366
     28 H2          9.4952   -8.0109   -4.7029 H         1 <0>         0.4196
     29 C22         7.7172   -7.5270   -3.9148 C.2       1 <0>         0.5803
     30 O1          7.8548   -6.3321   -4.1112 O.2       1 <0>        -0.5647
     31 N6          5.2210   -9.8428   -2.4791 N.pl3     1 <0>        -0.8029
     32 H3          1.0608    1.8219    0.1569 H         1 <0>         0.1238
     33 H4         -0.4809    1.8363   -0.7327 H         1 <0>         0.1239
     34 H5         -0.4805    1.7912    1.0467 H         1 <0>         0.1271
     35 H6         -1.8556   -0.1290   -0.7822 H         1 <0>         0.1248
     36 H7         -1.3339   -1.6017    0.0705 H         1 <0>         0.1237
     37 H8         -1.8551   -0.1741    0.9972 H         1 <0>         0.1277
     38 H9          2.3586    0.9509   -1.5000 H         1 <0>         0.1121
     39 H10         2.6279   -0.0860   -0.0588 H         1 <0>         0.0978
     40 H11         2.7572   -0.8661   -3.0233 H         1 <0>         0.0766
     41 H12         3.9361   -1.2345   -1.7273 H         1 <0>         0.0912
     42 H13         0.6921   -2.4138   -0.1336 H         1 <0>         0.0758
     43 H14         0.0411   -2.4060   -1.7964 H         1 <0>         0.0913
     44 H15         0.8416   -4.5922   -1.1122 H         1 <0>         0.1226
     45 H16         1.6693   -6.8699   -1.4032 H         1 <0>         0.1330
     46 H17         4.5293   -3.0132   -2.5953 H         1 <0>         0.1214
     47 H18         6.4503  -12.0640   -2.8295 H         1 <0>         0.1333
     48 H19         8.2684  -13.5361   -3.5388 H         1 <0>         0.1368
     49 H20        10.2849  -12.6063   -4.5928 H         1 <0>         0.1390
     50 H21        10.5041  -10.1879   -4.9507 H         1 <0>         0.1412
     51 H22         4.4858   -9.2416   -2.2819 H         1 <0>         0.4317
     52 H23         5.1504  -10.7845   -2.2574 H         1 <0>         0.4025
     53 H24         0.5204   -0.3699    0.9254 H         1 <0>         0.4266
     54 H25         6.3568   -5.1715   -3.2717 H         1 <0>         0.4357
@<TRIPOS>BOND
     1    1    2 1
     2    1   32 1
     3    1   33 1
     4    1   34 1
     5    2    3 1
     6    2    4 1
     7    2   53 1
     8    3   35 1
     9    3   36 1
    10    3   37 1
    11    4    5 1
    12    4    9 1
    13    4    6 1
    14    6    7 1
    15    6   38 1
    16    6   39 1
    17    7    8 1
    18    7   40 1
    19    7   41 1
    20    8    9 1
    21    8   10 1
    22    9   42 1
    23    9   43 1
    24   10   15 ar
    25   10   11 ar
    26   11   12 ar
    27   11   44 1
    28   12   13 ar
    29   12   45 1
    30   13   18 1
    31   13   14 ar
    32   14   15 ar
    33   14   16 1
    34   15   46 1
    35   16   17 1
    36   16   54 1
    37   17   18 2
    38   17   19 1
    39   19   29 1
    40   19   20 2
    41   20   21 1
    42   20   31 1
    43   21   26 ar
    44   21   22 ar
    45   22   23 ar
    46   22   47 1
    47   23   24 ar
    48   23   48 1
    49   24   25 ar
    50   24   49 1
    51   25   26 ar
    52   25   50 1
    53   26   27 1
    54   27   28 1
    55   27   29 am
    56   29   30 2
    57   31   51 1
    58   31   52 1
@<TRIPOS>MOLECULE
CHEMBL496150__1
   53    57     0     0     0
SMALL
USER_CHARGES

@<TRIPOS>ATOM
      1 C1         -0.0142    1.4451    0.0454 C.3       1 <0>         0.0231
      2 N1         -0.0090   -0.0239    0.0498 N.3       1 <0>        -0.5375
      3 C2          0.6665   -0.5444    1.2459 C.3       1 <0>         0.0188
      4 C3         -1.3743   -0.5555   -0.0570 C.3       1 <0>         0.0693
      5 H1         -1.9885   -0.2066    0.7732 H         1 <0>         0.0573
      6 C4         -2.0122   -0.1612   -1.4153 C.3       1 <0>        -0.1247
      7 C5         -3.0424   -1.3003   -1.6174 C.3       1 <0>         0.1159
      8 N2         -2.3781   -2.5073   -1.0928 N.pl3     1 <0>        -0.6357
      9 C6         -1.3570   -2.0976   -0.1131 C.3       1 <0>         0.1251
     10 C7         -2.6717   -3.8250   -1.4610 C.ar      1 <0>         0.2347
     11 C8         -1.9690   -4.8794   -0.8812 C.ar      1 <0>        -0.1673
     12 C9         -2.2487   -6.1821   -1.2354 C.ar      1 <0>        -0.0601
     13 C10        -3.2348   -6.4483   -2.1741 C.ar      1 <0>        -0.0041
     14 C11        -3.9488   -5.3913   -2.7643 C.ar      1 <0>         0.1134
     15 C12        -3.6610   -4.0739   -2.3938 C.ar      1 <0>        -0.1673
     16 N3         -4.8360   -5.9397   -3.6311 N.2       1 <0>        -0.5447
     17 C13        -4.7184   -7.2479   -3.6152 C.2       1 <0>         0.3948
     18 N4         -3.7399   -7.6134   -2.7287 N.pl3     1 <0>        -0.5812
     19 H2         -3.4539   -8.5181   -2.5274 H         1 <0>         0.4324
     20 C14        -5.5178   -8.1805   -4.4270 C.2       1 <0>        -0.2979
     21 C15        -6.5760   -7.7054   -5.2045 C.2       1 <0>         0.3672
     22 C16        -7.3427   -8.6755   -5.9969 C.ar      1 <0>        -0.1506
     23 C17        -8.4133   -8.2662   -6.7967 C.ar      1 <0>        -0.0493
     24 C18        -9.1087   -9.1911   -7.5238 C.ar      1 <0>        -0.1509
     25 C19        -8.7604  -10.5335   -7.4738 C.ar      1 <0>        -0.0501
     26 C20        -7.7083  -10.9584   -6.6912 C.ar      1 <0>        -0.1660
     27 C21        -6.9855  -10.0344   -5.9432 C.ar      1 <0>         0.2164
     28 N5         -5.9282  -10.4398   -5.1536 N.am      1 <0>        -0.6377
     29 H3         -5.6920  -11.3802   -5.1254 H         1 <0>         0.4182
     30 C22        -5.2146   -9.5628   -4.4283 C.2       1 <0>         0.5784
     31 O1         -4.2865   -9.9683   -3.7505 O.2       1 <0>        -0.5601
     32 N6         -6.8911   -6.3684   -5.2272 N.pl3     1 <0>        -0.8030
     33 H4          1.0121    1.8120    0.0547 H         1 <0>         0.0713
     34 H5         -0.5203    1.8040   -0.8508 H         1 <0>         0.0710
     35 H6         -0.5382    1.8092    0.9291 H         1 <0>         0.0268
     36 H7          0.1073   -0.2527    2.1349 H         1 <0>         0.0276
     37 H8          0.7182   -1.6318    1.1897 H         1 <0>         0.0709
     38 H9          1.6752   -0.1351    1.3005 H         1 <0>         0.0715
     39 H10        -2.5085    0.8069   -1.3475 H         1 <0>         0.0803
     40 H11        -1.2677   -0.1619   -2.2115 H         1 <0>         0.0874
     41 H12        -3.9524   -1.0931   -1.0544 H         1 <0>         0.0602
     42 H13        -3.2700   -1.4225   -2.6764 H         1 <0>         0.0743
     43 H14        -0.3753   -2.4458   -0.4341 H         1 <0>         0.0726
     44 H15        -1.5951   -2.5069    0.8686 H         1 <0>         0.0585
     45 H16        -1.2006   -4.6749   -0.1504 H         1 <0>         0.1259
     46 H17        -1.7002   -6.9948   -0.7825 H         1 <0>         0.1234
     47 H18        -4.2064   -3.2542   -2.8377 H         1 <0>         0.1237
     48 H19        -8.6901   -7.2232   -6.8397 H         1 <0>         0.1328
     49 H20        -9.9360   -8.8748   -8.1418 H         1 <0>         0.1347
     50 H21        -9.3197  -11.2527   -8.0538 H         1 <0>         0.1367
     51 H22        -7.4453  -12.0054   -6.6593 H         1 <0>         0.1397
     52 H23        -6.3286   -5.7295   -4.7621 H         1 <0>         0.4335
     53 H24        -7.6761   -6.0632   -5.7083 H         1 <0>         0.4001
@<TRIPOS>BOND
     1    1    2 1
     2    1   33 1
     3    1   34 1
     4    1   35 1
     5    2    3 1
     6    2    4 1
     7    3   36 1
     8    3   37 1
     9    3   38 1
    10    4    5 1
    11    4    9 1
    12    4    6 1
    13    6    7 1
    14    6   39 1
    15    6   40 1
    16    7    8 1
    17    7   41 1
    18    7   42 1
    19    8    9 1
    20    8   10 1
    21    9   43 1
    22    9   44 1
    23   10   15 ar
    24   10   11 ar
    25   11   12 ar
    26   11   45 1
    27   12   13 ar
    28   12   46 1
    29   13   18 1
    30   13   14 ar
    31   14   15 ar
    32   14   16 1
    33   15   47 1
    34   16   17 2
    35   17   18 1
    36   17   20 1
    37   18   19 1
    38   20   30 1
    39   20   21 2
    40   21   22 1
    41   21   32 1
    42   22   27 ar
    43   22   23 ar
    44   23   24 ar
    45   23   48 1
    46   24   25 ar
    47   24   49 1
    48   25   26 ar
    49   25   50 1
    50   26   27 ar
    51   26   51 1
    52   27   28 1
    53   28   29 1
    54   28   30 am
    55   30   31 2
    56   32   52 1
    57   32   53 1
@<TRIPOS>MOLECULE
CHEMBL496150__2
   54    58     0     0     0
SMALL
USER_CHARGES

@<TRIPOS>ATOM
      1 C1         -0.0500    1.4451   -0.0026 C.3       1 <0>        -0.0477
      2 N1         -0.0354   -0.0236   -0.0298 N.4       1 <0>        -0.3812
      3 C2         -1.4154   -0.5266   -0.0524 C.3       1 <0>        -0.0517
      4 C3          0.6734   -0.4841   -1.2312 C.3       1 <0>         0.0075
      5 H1          0.1869   -0.1092   -2.1317 H         1 <0>         0.1542
      6 C4          2.1624   -0.0498   -1.1904 C.3       1 <0>        -0.1472
      7 C5          2.8268   -1.1336   -2.0756 C.3       1 <0>         0.1162
      8 N2          2.0978   -2.3761   -1.7620 N.pl3     1 <0>        -0.6396
      9 C6          0.7589   -2.0247   -1.2579 C.3       1 <0>         0.1093
     10 C7          2.5938   -3.6748   -1.9209 C.ar      1 <0>         0.2154
     11 C8          1.7942   -4.7671   -1.5905 C.ar      1 <0>        -0.1717
     12 C9          2.2710   -6.0517   -1.7424 C.ar      1 <0>        -0.0555
     13 C10         3.5538   -6.2618   -2.2269 C.ar      1 <0>         0.0063
     14 C11         4.3677   -5.1662   -2.5628 C.ar      1 <0>         0.1134
     15 C12         3.8721   -3.8674   -2.4101 C.ar      1 <0>        -0.1505
     16 N3          5.5503   -5.6635   -3.0023 N.2       1 <0>        -0.5467
     17 C13         5.5207   -6.9761   -2.9605 C.2       1 <0>         0.4114
     18 N4          4.3056   -7.3962   -2.4872 N.pl3     1 <0>        -0.5805
     19 H2          4.0245   -8.3156   -2.3581 H         1 <0>         0.4364
     20 C14         6.6261   -7.8619   -3.3620 C.2       1 <0>        -0.3074
     21 C15         7.7752   -7.3287   -3.9498 C.2       1 <0>         0.3762
     22 C16         8.8499   -8.2538   -4.3321 C.ar      1 <0>        -0.1555
     23 C17        10.0262   -7.7857   -4.9241 C.ar      1 <0>        -0.0488
     24 C18        11.0098   -8.6696   -5.2691 C.ar      1 <0>        -0.1485
     25 C19        10.8495  -10.0283   -5.0366 C.ar      1 <0>        -0.0456
     26 C20         9.6971  -10.5110   -4.4543 C.ar      1 <0>        -0.1650
     27 C21         8.6828   -9.6295   -4.0939 C.ar      1 <0>         0.2178
     28 N5          7.5214  -10.0929   -3.5092 N.am      1 <0>        -0.6365
     29 H3          7.4185  -11.0443   -3.3503 H         1 <0>         0.4201
     30 C22         6.5327   -9.2578   -3.1491 C.2       1 <0>         0.5802
     31 O1          5.5283   -9.7142   -2.6313 O.2       1 <0>        -0.5621
     32 N6          7.8966   -5.9773   -4.1647 N.pl3     1 <0>        -0.8024
     33 H4          0.9740    1.8183    0.0142 H         1 <0>         0.1239
     34 H5         -0.5588    1.8199   -0.8907 H         1 <0>         0.1237
     35 H6         -0.5759    1.7868    0.8889 H         1 <0>         0.1268
     36 H7         -1.9242   -0.1518   -0.9405 H         1 <0>         0.1246
     37 H8         -1.4046   -1.6164   -0.0726 H         1 <0>         0.1235
     38 H9         -1.9414   -0.1849    0.8391 H         1 <0>         0.1274
     39 H10         2.2921    0.9419   -1.6237 H         1 <0>         0.1117
     40 H11         2.5516   -0.0839   -0.1728 H         1 <0>         0.0975
     41 H12         2.7139   -0.8835   -3.1305 H         1 <0>         0.0759
     42 H13         3.8814   -1.2378   -1.8204 H         1 <0>         0.0920
     43 H14         0.6269   -2.4208   -0.2510 H         1 <0>         0.0745
     44 H15        -0.0075   -2.4272   -1.9202 H         1 <0>         0.0899
     45 H16         0.7952   -4.6065   -1.2128 H         1 <0>         0.1231
     46 H17         1.6463   -6.8940   -1.4842 H         1 <0>         0.1278
     47 H18         4.4873   -3.0183   -2.6693 H         1 <0>         0.1261
     48 H19        10.1573   -6.7297   -5.1085 H         1 <0>         0.1330
     49 H20        11.9188   -8.3079   -5.7266 H         1 <0>         0.1368
     50 H21        11.6355  -10.7146   -5.3151 H         1 <0>         0.1393
     51 H22         9.5822  -11.5702   -4.2777 H         1 <0>         0.1417
     52 H23         7.2146   -5.3707   -3.8364 H         1 <0>         0.4318
     53 H24         8.6644   -5.6296   -4.6448 H         1 <0>         0.4024
     54 H25         0.4356   -0.3706    0.7923 H         1 <0>         0.4266
@<TRIPOS>BOND
     1    1    2 1
     2    1   33 1
     3    1   34 1
     4    1   35 1
     5    2    3 1
     6    2    4 1
     7    2   54 1
     8    3   36 1
     9    3   37 1
    10    3   38 1
    11    4    5 1
    12    4    9 1
    13    4    6 1
    14    6    7 1
    15    6   39 1
    16    6   40 1
    17    7    8 1
    18    7   41 1
    19    7   42 1
    20    8    9 1
    21    8   10 1
    22    9   43 1
    23    9   44 1
    24   10   15 ar
    25   10   11 ar
    26   11   12 ar
    27   11   45 1
    28   12   13 ar
    29   12   46 1
    30   13   18 1
    31   13   14 ar
    32   14   15 ar
    33   14   16 1
    34   15   47 1
    35   16   17 2
    36   17   18 1
    37   17   20 1
    38   18   19 1
    39   20   30 1
    40   20   21 2
    41   21   22 1
    42   21   32 1
    43   22   27 ar
    44   22   23 ar
    45   23   24 ar
    46   23   48 1
    47   24   25 ar
    48   24   49 1
    49   25   26 ar
    50   25   50 1
    51   26   27 ar
    52   26   51 1
    53   27   28 1
    54   28   29 1
    55   28   30 am
    56   30   31 2
    57   32   52 1
    58   32   53 1
@<TRIPOS>MOLECULE
CHEMBL523071
   54    58     0     0     0
SMALL
USER_CHARGES

@<TRIPOS>ATOM
      1 C1         -0.1129   -6.4505   -1.6011 C.3       1 <0>        -0.0545
      2 N1          0.0375   -5.1199   -0.9969 N.4       1 <0>        -0.3640
      3 C2          1.2481   -5.1193   -0.1786 C.3       1 <0>        -0.0064
      4 C3          1.8265   -3.7220   -0.1438 C.3       1 <0>        -0.1591
      5 C4          1.2937   -2.9776    1.0940 C.3       1 <0>         0.1106
      6 N2         -0.1333   -3.2817    1.3231 N.pl3     1 <0>        -0.6356
      7 C5         -1.0924   -3.3615    0.2407 C.3       1 <0>         0.1102
      8 C6         -1.1518   -4.8094   -0.3010 C.3       1 <0>        -0.0557
      9 C7         -0.5743   -3.5001    2.6323 C.ar      1 <0>         0.1971
     10 C8          0.2975   -3.2992    3.7005 C.ar      1 <0>        -0.1809
     11 C9         -0.1173   -3.5079    4.9847 C.ar      1 <0>        -0.0238
     12 C10        -1.4278   -3.9266    5.2368 C.ar      1 <0>         0.0297
     13 C11        -2.3098   -4.1296    4.1612 C.ar      1 <0>         0.0864
     14 C12        -1.8780   -3.9097    2.8616 C.ar      1 <0>        -0.1887
     15 N3         -3.5105   -4.5345    4.7159 N.pl3     1 <0>        -0.5847
     16 C13        -3.3375   -4.5678    6.0762 C.2       1 <0>         0.3949
     17 N4         -2.1106   -4.2092    6.3753 N.2       1 <0>        -0.5261
     18 C14        -4.3716   -4.9483    7.0532 C.2       1 <0>        -0.3044
     19 C15        -4.1410   -4.7821    8.4201 C.2       1 <0>         0.3742
     20 C16        -5.2036   -5.1760    9.3542 C.ar      1 <0>        -0.1543
     21 C17        -5.0375   -5.0354   10.7347 C.ar      1 <0>        -0.0487
     22 C18        -6.0436   -5.4100   11.5804 C.ar      1 <0>        -0.1474
     23 C19        -7.2288   -5.9294   11.0789 C.ar      1 <0>        -0.0457
     24 C20        -7.4132   -6.0765    9.7208 C.ar      1 <0>        -0.1650
     25 C21        -6.4028   -5.7013    8.8411 C.ar      1 <0>         0.2155
     26 N5         -6.5684   -5.8397    7.4776 N.am      1 <0>        -0.6363
     27 H1         -7.4005   -6.2031    7.1364 H         1 <0>         0.4196
     28 C22        -5.6069   -5.4790    6.6116 C.2       1 <0>         0.5810
     29 O1         -5.8015   -5.6163    5.4164 O.2       1 <0>        -0.5674
     30 N6         -2.9533   -4.2649    8.8785 N.pl3     1 <0>        -0.8021
     31 H2         -0.9573   -6.4432   -2.2903 H         1 <0>         0.1242
     32 H3          0.7967   -6.7081   -2.1435 H         1 <0>         0.1248
     33 H4         -0.2897   -7.1873   -0.8176 H         1 <0>         0.1217
     34 H5          1.0024   -5.4369    0.8348 H         1 <0>         0.1328
     35 H6          1.9783   -5.8049   -0.6085 H         1 <0>         0.1335
     36 H7          2.9138   -3.7800   -0.0929 H         1 <0>         0.1226
     37 H8          1.5330   -3.1846   -1.0455 H         1 <0>         0.0872
     38 H9          1.8690   -3.2806    1.9688 H         1 <0>         0.1000
     39 H10         1.4111   -1.9044    0.9439 H         1 <0>         0.0790
     40 H11        -2.0770   -3.0706    0.6069 H         1 <0>         0.1179
     41 H12        -0.7913   -2.6868   -0.5607 H         1 <0>         0.0943
     42 H13        -2.0016   -4.9074   -0.9766 H         1 <0>         0.1396
     43 H14        -1.2740   -5.5018    0.5319 H         1 <0>         0.1307
     44 H15         1.3104   -2.9759    3.5112 H         1 <0>         0.1315
     45 H16         0.5665   -3.3500    5.8056 H         1 <0>         0.1337
     46 H17        -2.5532   -4.0608    2.0324 H         1 <0>         0.1195
     47 H18        -4.1175   -4.6326   11.1318 H         1 <0>         0.1338
     48 H19        -5.9153   -5.3013   12.6472 H         1 <0>         0.1373
     49 H20        -8.0146   -6.2217   11.7597 H         1 <0>         0.1395
     50 H21        -8.3392   -6.4821    9.3408 H         1 <0>         0.1413
     51 H22        -2.3247   -3.8676    8.2556 H         1 <0>         0.4301
     52 H23        -2.7434   -4.2971    9.8250 H         1 <0>         0.4043
     53 H24         0.1573   -4.4466   -1.7389 H         1 <0>         0.4175
     54 H25        -4.3229   -4.7536    4.2333 H         1 <0>         0.4346
@<TRIPOS>BOND
     1    1    2 1
     2    1   31 1
     3    1   32 1
     4    1   33 1
     5    2    8 1
     6    2    3 1
     7    2   53 1
     8    3    4 1
     9    3   34 1
    10    3   35 1
    11    4    5 1
    12    4   36 1
    13    4   37 1
    14    5    6 1
    15    5   38 1
    16    5   39 1
    17    6    7 1
    18    6    9 1
    19    7    8 1
    20    7   40 1
    21    7   41 1
    22    8   42 1
    23    8   43 1
    24    9   14 ar
    25    9   10 ar
    26   10   11 ar
    27   10   44 1
    28   11   12 ar
    29   11   45 1
    30   12   17 1
    31   12   13 ar
    32   13   14 ar
    33   13   15 1
    34   14   46 1
    35   15   16 1
    36   15   54 1
    37   16   17 2
    38   16   18 1
    39   18   28 1
    40   18   19 2
    41   19   20 1
    42   19   30 1
    43   20   25 ar
    44   20   21 ar
    45   21   22 ar
    46   21   47 1
    47   22   23 ar
    48   22   48 1
    49   23   24 ar
    50   23   49 1
    51   24   25 ar
    52   24   50 1
    53   25   26 1
    54   26   27 1
    55   26   28 am
    56   28   29 2
    57   30   51 1
    58   30   52 1
@<TRIPOS>MOLECULE
CHEMBL523071__1
   53    57     0     0     0
SMALL
USER_CHARGES

@<TRIPOS>ATOM
      1 C1          1.0833    0.7201   -0.2014 C.3       1 <0>         0.0329
      2 N1          0.8450   -0.7293   -0.1782 N.3       1 <0>        -0.5665
      3 C2         -0.5799   -1.0282   -0.3112 C.3       1 <0>         0.0739
      4 C3         -0.7462   -2.2983   -1.1159 C.3       1 <0>        -0.1330
      5 C4         -0.8141   -3.5063   -0.1664 C.3       1 <0>         0.1230
      6 N2          0.1479   -3.3696    0.9449 N.pl3     1 <0>        -0.6234
      7 C5          1.4961   -2.8756    0.7512 C.3       1 <0>         0.1288
      8 C6          1.5145   -1.3357    0.9102 C.3       1 <0>         0.0528
      9 C7         -0.2575   -3.7314    2.2343 C.ar      1 <0>         0.2074
     10 C8         -1.4996   -4.3328    2.4270 C.ar      1 <0>        -0.1717
     11 C9         -1.9108   -4.6940    3.6923 C.ar      1 <0>        -0.0621
     12 C10        -1.0857   -4.4588    4.7824 C.ar      1 <0>        -0.0038
     13 C11         0.1690   -3.8527    4.5979 C.ar      1 <0>         0.1107
     14 C12         0.5787   -3.4954    3.3094 C.ar      1 <0>        -0.1683
     15 N3          0.7490   -3.7488    5.8193 N.2       1 <0>        -0.5413
     16 C13        -0.0539   -4.2440    6.7334 C.2       1 <0>         0.3921
     17 N4         -1.2038   -4.6970    6.1423 N.pl3     1 <0>        -0.5817
     18 H1         -1.9593   -5.1071    6.5916 H         1 <0>         0.4319
     19 C14         0.2381   -4.3038    8.1753 C.2       1 <0>        -0.2950
     20 C15         1.3636   -3.6580    8.6912 C.2       1 <0>         0.3663
     21 C16         1.6110   -3.7468   10.1361 C.ar      1 <0>        -0.1504
     22 C17         2.7188   -3.1232   10.7167 C.ar      1 <0>        -0.0492
     23 C18         2.9237   -3.2223   12.0643 C.ar      1 <0>        -0.1508
     24 C19         2.0406   -3.9378   12.8605 C.ar      1 <0>        -0.0501
     25 C20         0.9421   -4.5608   12.3081 C.ar      1 <0>        -0.1660
     26 C21         0.7130   -4.4725   10.9387 C.ar      1 <0>         0.2159
     27 N5         -0.3816   -5.0889   10.3662 N.am      1 <0>        -0.6374
     28 H2         -0.9935   -5.5865   10.9309 H         1 <0>         0.4182
     29 C22        -0.6234   -5.0111    9.0472 C.2       1 <0>         0.5777
     30 O1         -1.6060   -5.5680    8.5892 O.2       1 <0>        -0.5598
     31 N6          2.2156   -2.9597    7.8703 N.pl3     1 <0>        -0.8033
     32 H3          2.1560    0.9115   -0.2275 H         1 <0>         0.0663
     33 H4          0.6156    1.1510   -1.0867 H         1 <0>         0.0665
     34 H5          0.6550    1.1731    0.6927 H         1 <0>         0.0227
     35 H6         -1.0179   -1.1633    0.6778 H         1 <0>         0.0439
     36 H7         -1.0788   -0.2049   -0.8225 H         1 <0>         0.0682
     37 H8         -1.6664   -2.2417   -1.6973 H         1 <0>         0.0773
     38 H9          0.1022   -2.4142   -1.7904 H         1 <0>         0.0792
     39 H10        -1.8219   -3.5835    0.2415 H         1 <0>         0.0773
     40 H11        -0.5863   -4.4135   -0.7261 H         1 <0>         0.0575
     41 H12         2.1570   -3.3250    1.4924 H         1 <0>         0.0801
     42 H13         1.8396   -3.1412   -0.2486 H         1 <0>         0.0797
     43 H14         2.5470   -0.9874    0.9393 H         1 <0>         0.0788
     44 H15         1.0156   -1.0619    1.8399 H         1 <0>         0.0296
     45 H16        -2.1442   -4.5167    1.5801 H         1 <0>         0.1301
     46 H17        -2.8749   -5.1594    3.8349 H         1 <0>         0.1220
     47 H18         1.5425   -3.0330    3.1555 H         1 <0>         0.1258
     48 H19         3.4104   -2.5653   10.1029 H         1 <0>         0.1328
     49 H20         3.7798   -2.7404   12.5130 H         1 <0>         0.1348
     50 H21         2.2160   -4.0076   13.9239 H         1 <0>         0.1368
     51 H22         0.2608   -5.1152   12.9365 H         1 <0>         0.1397
     52 H23         1.9642   -2.7795    6.9509 H         1 <0>         0.4316
     53 H24         3.0686   -2.6467    8.2101 H         1 <0>         0.4013
@<TRIPOS>BOND
     1    1    2 1
     2    1   32 1
     3    1   33 1
     4    1   34 1
     5    2    8 1
     6    2    3 1
     7    3    4 1
     8    3   35 1
     9    3   36 1
    10    4    5 1
    11    4   37 1
    12    4   38 1
    13    5    6 1
    14    5   39 1
    15    5   40 1
    16    6    7 1
    17    6    9 1
    18    7    8 1
    19    7   41 1
    20    7   42 1
    21    8   43 1
    22    8   44 1
    23    9   14 ar
    24    9   10 ar
    25   10   11 ar
    26   10   45 1
    27   11   12 ar
    28   11   46 1
    29   12   17 1
    30   12   13 ar
    31   13   14 ar
    32   13   15 1
    33   14   47 1
    34   15   16 2
    35   16   17 1
    36   16   19 1
    37   17   18 1
    38   19   29 1
    39   19   20 2
    40   20   21 1
    41   20   31 1
    42   21   26 ar
    43   21   22 ar
    44   22   23 ar
    45   22   48 1
    46   23   24 ar
    47   23   49 1
    48   24   25 ar
    49   24   50 1
    50   25   26 ar
    51   25   51 1
    52   26   27 1
    53   27   28 1
    54   27   29 am
    55   29   30 2
    56   31   52 1
    57   31   53 1
@<TRIPOS>MOLECULE
CHEMBL523071__2
   54    58     0     0     0
SMALL
USER_CHARGES

@<TRIPOS>ATOM
      1 C1         -0.4996   -4.7952   -1.8596 C.3       1 <0>        -0.0543
      2 N1         -0.4916   -3.5226   -1.1259 N.4       1 <0>        -0.3640
      3 C2          0.7488   -3.4410   -0.3579 C.3       1 <0>        -0.0060
      4 C3          1.1432   -1.9892   -0.1991 C.3       1 <0>        -0.1591
      5 C4          0.5824   -1.4483    1.1287 C.3       1 <0>         0.1109
      6 N2         -0.7799   -1.9614    1.3782 N.pl3     1 <0>        -0.6373
      7 C5         -1.7745   -2.0615    0.3301 C.3       1 <0>         0.1111
      8 C6         -1.6741   -3.4438   -0.3572 C.3       1 <0>        -0.0554
      9 C7         -1.1220   -2.3649    2.6736 C.ar      1 <0>         0.1839
     10 C8         -0.2296   -2.1553    3.7231 C.ar      1 <0>        -0.1703
     11 C9         -0.5547   -2.5482    5.0039 C.ar      1 <0>        -0.0539
     12 C10        -1.7765   -3.1560    5.2530 C.ar      1 <0>         0.0082
     13 C11        -2.6831   -3.3715    4.2008 C.ar      1 <0>         0.1092
     14 C12        -2.3457   -2.9640    2.9063 C.ar      1 <0>        -0.1604
     15 N3         -3.7771   -3.9739    4.7295 N.2       1 <0>        -0.5448
     16 C13        -3.6080   -4.1422    6.0212 C.2       1 <0>         0.4102
     17 N4         -2.3845   -3.6522    6.3950 N.pl3     1 <0>        -0.5798
     18 H1         -2.0131   -3.6529    7.2911 H         1 <0>         0.4368
     19 C14        -4.5859   -4.7631    6.9301 C.2       1 <0>        -0.3044
     20 C15        -5.7272   -5.3825    6.4165 C.2       1 <0>         0.3760
     21 C16        -6.6719   -5.9877    7.3642 C.ar      1 <0>        -0.1563
     22 C17        -7.8332   -6.6236    6.9165 C.ar      1 <0>        -0.0490
     23 C18        -8.6943   -7.1784    7.8211 C.ar      1 <0>        -0.1483
     24 C19        -8.4247   -7.1149    9.1810 C.ar      1 <0>        -0.0449
     25 C20        -7.2854   -6.4922    9.6438 C.ar      1 <0>        -0.1647
     26 C21        -6.3941   -5.9212    8.7410 C.ar      1 <0>         0.2178
     27 N5         -5.2473   -5.2935    9.1844 N.am      1 <0>        -0.6360
     28 H2         -5.0673   -5.2545   10.1368 H         1 <0>         0.4207
     29 C22        -4.3716   -4.7409    8.3288 C.2       1 <0>         0.5790
     30 O1         -3.3705   -4.2023    8.7682 O.2       1 <0>        -0.5607
     31 N6         -5.9599   -5.4242    5.0632 N.pl3     1 <0>        -0.8041
     32 H3         -1.3718   -4.8329   -2.5122 H         1 <0>         0.1241
     33 H4          0.4069   -4.8743   -2.4597 H         1 <0>         0.1242
     34 H5         -0.5397   -5.6227   -1.1512 H         1 <0>         0.1216
     35 H6          0.5981   -3.8868    0.6253 H         1 <0>         0.1329
     36 H7          1.5386   -3.9771   -0.8841 H         1 <0>         0.1329
     37 H8          2.2300   -1.9062   -0.1953 H         1 <0>         0.1218
     38 H9          0.7372   -1.4096   -1.0281 H         1 <0>         0.0871
     39 H10         1.2358   -1.7565    1.9450 H         1 <0>         0.0985
     40 H11         0.5525   -0.3595    1.0873 H         1 <0>         0.0780
     41 H12        -2.7685   -1.9422    0.7613 H         1 <0>         0.1193
     42 H13        -1.6041   -1.2770   -0.4072 H         1 <0>         0.0930
     43 H14        -2.5373   -3.5874   -1.0070 H         1 <0>         0.1394
     44 H15        -1.6633   -4.2250    0.4028 H         1 <0>         0.1313
     45 H16         0.7225   -1.6826    3.5319 H         1 <0>         0.1320
     46 H17         0.1416   -2.3832    5.8128 H         1 <0>         0.1284
     47 H18        -3.0365   -3.1208    2.0910 H         1 <0>         0.1244
     48 H19        -8.0495   -6.6759    5.8596 H         1 <0>         0.1327
     49 H20        -9.5916   -7.6697    7.4751 H         1 <0>         0.1370
     50 H21        -9.1149   -7.5577    9.8839 H         1 <0>         0.1397
     51 H22        -7.0849   -6.4483   10.7042 H         1 <0>         0.1421
     52 H23        -5.2623   -5.1610    4.4428 H         1 <0>         0.4289
     53 H24        -6.8219   -5.7168    4.7281 H         1 <0>         0.4034
     54 H25        -0.4977   -2.7695   -1.7974 H         1 <0>         0.4173
@<TRIPOS>BOND
     1    1    2 1
     2    1   32 1
     3    1   33 1
     4    1   34 1
     5    2    8 1
     6    2    3 1
     7    2   54 1
     8    3    4 1
     9    3   35 1
    10    3   36 1
    11    4    5 1
    12    4   37 1
    13    4   38 1
    14    5    6 1
    15    5   39 1
    16    5   40 1
    17    6    7 1
    18    6    9 1
    19    7    8 1
    20    7   41 1
    21    7   42 1
    22    8   43 1
    23    8   44 1
    24    9   14 ar
    25    9   10 ar
    26   10   11 ar
    27   10   45 1
    28   11   12 ar
    29   11   46 1
    30   12   17 1
    31   12   13 ar
    32   13   14 ar
    33   13   15 1
    34   14   47 1
    35   15   16 2
    36   16   17 1
    37   16   19 1
    38   17   18 1
    39   19   29 1
    40   19   20 2
    41   20   21 1
    42   20   31 1
    43   21   26 ar
    44   21   22 ar
    45   22   23 ar
    46   22   48 1
    47   23   24 ar
    48   23   49 1
    49   24   25 ar
    50   24   50 1
    51   25   26 ar
    52   25   51 1
    53   26   27 1
    54   27   28 1
    55   27   29 am
    56   29   30 2
    57   31   52 1
    58   31   53 1
@<TRIPOS>MOLECULE
CHEMBL478611
   39    41     0     0     0
SMALL
USER_CHARGES

@<TRIPOS>ATOM
      1 C1         -0.0167    1.3779    0.0096 C.ar      1 <0>        -0.1100
      2 C2          1.1696    2.0886    0.0021 C.ar      1 <0>        -0.1241
      3 C3          2.3802    1.4154   -0.0130 C.ar      1 <0>         0.0817
      4 C4          2.3990    0.0236   -0.0206 C.ar      1 <0>         0.0865
      5 C5          1.2071   -0.6822   -0.0130 C.ar      1 <0>        -0.1296
      6 C6          0.0021   -0.0041    0.0020 C.ar      1 <0>        -0.0883
      7 C7         -1.2936   -0.7736    0.0102 C.3       1 <0>        -0.0975
      8 C8         -1.7458   -1.0263   -1.4294 C.3       1 <0>         0.1146
      9 C9         -0.6900   -1.8625   -2.1638 C.3       1 <0>         0.0317
     10 O1         -1.0893   -1.9935   -3.5288 O.3       1 <0>        -0.2910
     11 C10        -2.3669   -2.3832   -3.7823 C.ar      1 <0>         0.1474
     12 C11        -3.3561   -2.3121   -2.8174 C.ar      1 <0>        -0.1926
     13 C12        -4.6472   -2.7142   -3.1200 C.ar      1 <0>        -0.0680
     14 C13        -4.9552   -3.1911   -4.3789 C.ar      1 <0>        -0.1643
     15 C14        -3.9690   -3.2691   -5.3503 C.ar      1 <0>         0.1241
     16 C15        -2.6743   -2.8650   -5.0532 C.ar      1 <0>         0.0462
     17 O2         -1.7039   -2.9403   -6.0043 O.3       1 <0>        -0.4778
     18 O3         -4.2689   -3.7398   -6.5905 O.3       1 <0>        -0.4890
     19 C16        -3.0619   -1.8078   -1.4271 C.3       1 <0>         0.1689
     20 H1         -3.8708   -1.1549   -1.0993 H         1 <0>         0.0862
     21 O4         -2.9547   -2.9167   -0.5322 O.3       1 <0>        -0.5523
     22 O5         -1.9275    0.2208   -2.1030 O.3       1 <0>        -0.5396
     23 O6          3.5850   -0.6417   -0.0359 O.3       1 <0>        -0.4868
     24 O7          3.5476    2.1129   -0.0209 O.3       1 <0>        -0.4873
     25 H2         -0.9598    1.9038    0.0259 H         1 <0>         0.1358
     26 H3          1.1522    3.1684    0.0077 H         1 <0>         0.1370
     27 H4          1.2190   -1.7621   -0.0189 H         1 <0>         0.1351
     28 H5         -1.1467   -1.7271    0.5175 H         1 <0>         0.0999
     29 H6         -2.0555   -0.1967    0.5344 H         1 <0>         0.0914
     30 H7          0.2769   -1.3622   -2.1104 H         1 <0>         0.1155
     31 H8         -0.6193   -2.8490   -1.7057 H         1 <0>         0.0829
     32 H9         -5.4180   -2.6546   -2.3659 H         1 <0>         0.1337
     33 H10        -5.9638   -3.5027   -4.6068 H         1 <0>         0.1385
     34 H11        -1.2285   -3.7823   -6.0154 H         1 <0>         0.3887
     35 H12        -4.5507   -3.0558   -7.2132 H         1 <0>         0.3980
     36 H13        -3.7540   -3.4584   -0.4797 H         1 <0>         0.3898
     37 H14        -1.1284    0.7635   -2.1482 H         1 <0>         0.3855
     38 H15         3.9367   -0.8389    0.8430 H         1 <0>         0.3898
     39 H16         3.8938    2.3101    0.8602 H         1 <0>         0.3893
@<TRIPOS>BOND
     1    1    6 ar
     2    1    2 ar
     3    1   25 1
     4    2    3 ar
     5    2   26 1
     6    3    4 ar
     7    3   24 1
     8    4    5 ar
     9    4   23 1
    10    5    6 ar
    11    5   27 1
    12    6    7 1
    13    7    8 1
    14    7   28 1
    15    7   29 1
    16    8   19 1
    17    8    9 1
    18    8   22 1
    19    9   10 1
    20    9   30 1
    21    9   31 1
    22   10   11 1
    23   11   16 ar
    24   11   12 ar
    25   12   13 ar
    26   12   19 1
    27   13   14 ar
    28   13   32 1
    29   14   15 ar
    30   14   33 1
    31   15   16 ar
    32   15   18 1
    33   16   17 1
    34   17   34 1
    35   18   35 1
    36   19   20 1
    37   19   21 1
    38   21   36 1
    39   22   37 1
    40   23   38 1
    41   24   39 1
@<TRIPOS>MOLECULE
CHEMBL402548
   66    70     0     0     0
SMALL
USER_CHARGES

@<TRIPOS>ATOM
      1 C1          0.7850    1.5048    0.0021 C.3       1 <0>        -0.0472
      2 N1          0.7580    0.0360    0.0001 N.4       1 <0>        -0.3844
      3 C2         -0.6347   -0.4260   -0.0528 C.3       1 <0>        -0.0233
      4 C3         -0.6610   -1.9535   -0.1705 C.3       1 <0>         0.0948
      5 N2          0.1251   -2.5201    0.9364 N.pl3     1 <0>        -0.6397
      6 C4          1.4802   -1.9947    1.1643 C.3       1 <0>         0.0958
      7 C5          1.4053   -0.4653    1.2191 C.3       1 <0>        -0.0229
      8 C6         -0.3981   -3.5235    1.7446 C.ar      1 <0>         0.2274
      9 C7         -1.7227   -3.9220    1.5875 C.ar      1 <0>        -0.1950
     10 C8         -2.2435   -4.9143    2.3860 C.ar      1 <0>        -0.0041
     11 C9         -1.4408   -5.5227    3.3555 C.ar      1 <0>        -0.1718
     12 C10        -0.1108   -5.1206    3.5105 C.ar      1 <0>        -0.0339
     13 C11         0.4056   -4.1313    2.7053 C.ar      1 <0>        -0.1935
     14 C12        -1.9960   -6.5863    4.2134 C.2       1 <0>         0.5544
     15 O1         -3.1532   -6.9349    4.0778 O.2       1 <0>        -0.4845
     16 N3         -1.2209   -7.1719    5.1476 N.am      1 <0>        -0.6361
     17 C13        -1.7482   -8.1821    5.9625 C.2       1 <0>         0.3362
     18 C14        -1.0575   -8.8714    6.9758 C.2       1 <0>        -0.2825
     19 C15        -1.9094   -9.7615    7.5259 C.2       1 <0>         0.0771
     20 N4         -3.0975   -9.6466    6.8902 N.pl3     1 <0>        -0.4390
     21 H1         -3.8964  -10.1638    7.0776 H         1 <0>         0.4475
     22 N5         -2.9739   -8.6469    5.9178 N.2       1 <0>        -0.2476
     23 C16        -1.2016  -10.5209    8.6193 C.3       1 <0>         0.1701
     24 N6          0.1730  -10.0121    8.6910 N.am      1 <0>        -0.6104
     25 C17         0.2815   -8.9716    7.6619 C.3       1 <0>         0.1946
     26 C18         1.1425  -10.4191    9.5342 C.2       1 <0>         0.5508
     27 O2          2.2127   -9.8488    9.5481 O.2       1 <0>        -0.4984
     28 C19         0.8966  -11.5827   10.4597 C.3       1 <0>         0.1224
     29 H2         -0.0554  -11.4444   10.9723 H         1 <0>         0.0940
     30 C20         0.8561  -12.8600    9.6610 C.ar      1 <0>        -0.1223
     31 C21         2.0322  -13.4362    9.2188 C.ar      1 <0>        -0.0830
     32 C22         1.9951  -14.6078    8.4861 C.ar      1 <0>        -0.1181
     33 C23         0.7819  -15.2035    8.1962 C.ar      1 <0>        -0.1075
     34 C24        -0.3942  -14.6278    8.6392 C.ar      1 <0>        -0.1199
     35 C25        -0.3568  -13.4585    9.3755 C.ar      1 <0>        -0.1133
     36 O3          1.9498  -11.6562   11.4227 O.3       1 <0>        -0.3512
     37 C26         1.5496  -12.2019   12.6813 C.3       1 <0>         0.0269
     38 H3          1.8188    1.8491    0.0333 H         1 <0>         0.1258
     39 H4          0.3048    1.8783   -0.9023 H         1 <0>         0.1258
     40 H5          0.2516    1.8768    0.8769 H         1 <0>         0.1221
     41 H6         -1.1531   -0.1226    0.8568 H         1 <0>         0.1336
     42 H7         -1.1310    0.0138   -0.9179 H         1 <0>         0.1429
     43 H8         -1.6898   -2.3081   -0.1081 H         1 <0>         0.1298
     44 H9         -0.2236   -2.2551   -1.1223 H         1 <0>         0.0921
     45 H10         1.8669   -2.3766    2.1092 H         1 <0>         0.1291
     46 H11         2.1338   -2.3005    0.3474 H         1 <0>         0.0916
     47 H12         2.4123   -0.0545    1.2911 H         1 <0>         0.1429
     48 H13         0.8252   -0.1607    2.0902 H         1 <0>         0.1334
     49 H14        -2.3423   -3.4516    0.8383 H         1 <0>         0.1324
     50 H15        -3.2714   -5.2225    2.2641 H         1 <0>         0.1442
     51 H16         0.5118   -5.5886    4.2586 H         1 <0>         0.1327
     52 H17         1.4340   -3.8230    2.8217 H         1 <0>         0.1324
     53 H18        -0.2979   -6.8939    5.2558 H         1 <0>         0.4197
     54 H19        -1.7071  -10.3567    9.5709 H         1 <0>         0.0954
     55 H20        -1.1905  -11.5850    8.3833 H         1 <0>         0.1014
     56 H21         1.0487   -9.2458    6.9379 H         1 <0>         0.0789
     57 H22         0.5321   -8.0175    8.1255 H         1 <0>         0.0801
     58 H23         2.9801  -12.9707    9.4453 H         1 <0>         0.1307
     59 H24         2.9139  -15.0576    8.1400 H         1 <0>         0.1270
     60 H25         0.7528  -16.1185    7.6232 H         1 <0>         0.1258
     61 H26        -1.3421  -15.0931    8.4124 H         1 <0>         0.1269
     62 H27        -1.2754  -13.0107    9.7249 H         1 <0>         0.1243
     63 H28         1.1757  -13.2154   12.5355 H         1 <0>         0.0479
     64 H29         2.4051  -12.2238   13.3564 H         1 <0>         0.0967
     65 H30         0.7626  -11.5828   13.1120 H         1 <0>         0.0466
     66 H31         1.2546   -0.3072   -0.8084 H         1 <0>         0.4252
@<TRIPOS>BOND
     1    1    2 1
     2    1   38 1
     3    1   39 1
     4    1   40 1
     5    2    7 1
     6    2    3 1
     7    2   66 1
     8    3    4 1
     9    3   41 1
    10    3   42 1
    11    4    5 1
    12    4   43 1
    13    4   44 1
    14    5    6 1
    15    5    8 1
    16    6    7 1
    17    6   45 1
    18    6   46 1
    19    7   47 1
    20    7   48 1
    21    8   13 ar
    22    8    9 ar
    23    9   10 ar
    24    9   49 1
    25   10   11 ar
    26   10   50 1
    27   11   12 ar
    28   11   14 1
    29   12   13 ar
    30   12   51 1
    31   13   52 1
    32   14   15 2
    33   14   16 am
    34   16   17 1
    35   16   53 1
    36   17   22 2
    37   17   18 1
    38   18   25 1
    39   18   19 2
    40   19   20 1
    41   19   23 1
    42   20   21 1
    43   20   22 1
    44   23   24 1
    45   23   54 1
    46   23   55 1
    47   24   25 1
    48   24   26 am
    49   25   56 1
    50   25   57 1
    51   26   27 2
    52   26   28 1
    53   28   29 1
    54   28   30 1
    55   28   36 1
    56   30   35 ar
    57   30   31 ar
    58   31   32 ar
    59   31   58 1
    60   32   33 ar
    61   32   59 1
    62   33   34 ar
    63   33   60 1
    64   34   35 ar
    65   34   61 1
    66   35   62 1
    67   36   37 1
    68   37   63 1
    69   37   64 1
    70   37   65 1
@<TRIPOS>MOLECULE
CHEMBL402548__1
   66    70     0     0     0
SMALL
USER_CHARGES

@<TRIPOS>ATOM
      1 C1          1.1786    1.0540   -0.5238 C.3       1 <0>        -0.0474
      2 N1          1.4854   -0.3788   -0.4192 N.4       1 <0>        -0.3846
      3 C2          0.3239   -1.1599   -0.8628 C.3       1 <0>        -0.0233
      4 C3          0.6815   -2.6499   -0.8630 C.3       1 <0>         0.0940
      5 N2          1.1808   -3.0098    0.4731 N.pl3     1 <0>        -0.6385
      6 C4          2.2377   -2.1758    1.0661 C.3       1 <0>         0.0948
      7 C5          1.8066   -0.7082    0.9752 C.3       1 <0>        -0.0229
      8 C6          0.6681   -4.1070    1.1564 C.ar      1 <0>         0.2347
      9 C7         -0.4052   -4.8167    0.6248 C.ar      1 <0>        -0.1965
     10 C8         -0.9149   -5.9030    1.2985 C.ar      1 <0>         0.0011
     11 C9         -0.3535   -6.2938    2.5179 C.ar      1 <0>        -0.1808
     12 C10         0.7246   -5.5792    3.0487 C.ar      1 <0>        -0.0288
     13 C11         1.2328   -4.4968    2.3677 C.ar      1 <0>        -0.1939
     14 C12        -0.8976   -7.4572    3.2428 C.2       1 <0>         0.5689
     15 O1         -1.8356   -8.0777    2.7800 O.2       1 <0>        -0.5249
     16 N3         -0.3553   -7.8328    4.4181 N.am      1 <0>        -0.6401
     17 C13        -0.8696   -8.9323    5.1032 C.2       1 <0>         0.3556
     18 C14        -0.4227   -9.4213    6.2938 C.2       1 <0>        -0.3065
     19 C15        -1.2092  -10.5253    6.6273 C.2       1 <0>         0.0700
     20 N4         -2.0975  -10.7008    5.6798 N.2       1 <0>        -0.2414
     21 H1         -2.4326   -9.5974    3.8988 H         1 <0>         0.4562
     22 N5         -1.9115   -9.7087    4.7093 N.pl3     1 <0>        -0.4534
     23 C16        -0.7268  -11.0791    7.9445 C.3       1 <0>         0.1839
     24 N6          0.3965  -10.2510    8.3936 N.am      1 <0>        -0.6103
     25 C17         0.6020   -9.2126    7.3792 C.3       1 <0>         0.2042
     26 C18         1.1074  -10.4139    9.5269 C.2       1 <0>         0.5507
     27 O2          1.9568   -9.6036    9.8318 O.2       1 <0>        -0.5026
     28 C19         0.8469  -11.6029   10.4155 C.3       1 <0>         0.1221
     29 H2         -0.2267  -11.7147   10.5673 H         1 <0>         0.0945
     30 C20         1.3944  -12.8465    9.7638 C.ar      1 <0>        -0.1222
     31 C21         2.7547  -13.0918    9.7764 C.ar      1 <0>        -0.0836
     32 C22         3.2569  -14.2325    9.1787 C.ar      1 <0>        -0.1199
     33 C23         2.3987  -15.1283    8.5687 C.ar      1 <0>        -0.1081
     34 C24         1.0383  -14.8835    8.5569 C.ar      1 <0>        -0.1192
     35 C25         0.5357  -13.7448    9.1584 C.ar      1 <0>        -0.1104
     36 O3          1.4882  -11.4044   11.6770 O.3       1 <0>        -0.3519
     37 C26         0.8235  -12.0364   12.7728 C.3       1 <0>         0.0269
     38 H3          2.0430    1.6351   -0.2023 H         1 <0>         0.1263
     39 H4          0.9400    1.2998   -1.5586 H         1 <0>         0.1262
     40 H5          0.3252    1.2902    0.1118 H         1 <0>         0.1223
     41 H6         -0.5113   -0.9867   -0.1841 H         1 <0>         0.1338
     42 H7          0.0431   -0.8534   -1.8704 H         1 <0>         0.1437
     43 H8         -0.2058   -3.2395   -1.0935 H         1 <0>         0.1300
     44 H9          1.4551   -2.8407   -1.6068 H         1 <0>         0.0934
     45 H10         2.3792   -2.4519    2.1110 H         1 <0>         0.1295
     46 H11         3.1684   -2.3188    0.5171 H         1 <0>         0.0930
     47 H12         2.6184   -0.0688    1.3220 H         1 <0>         0.1438
     48 H13         0.9266   -0.5487    1.5983 H         1 <0>         0.1337
     49 H14        -0.8384   -4.5143   -0.3171 H         1 <0>         0.1345
     50 H15        -1.7480   -6.4527    0.8860 H         1 <0>         0.1453
     51 H16         1.1604   -5.8787    3.9904 H         1 <0>         0.1339
     52 H17         2.0679   -3.9466    2.7754 H         1 <0>         0.1348
     53 H18         0.3928   -7.3379    4.7872 H         1 <0>         0.4276
     54 H19        -1.5315  -11.0393    8.6787 H         1 <0>         0.0962
     55 H20        -0.3966  -12.1095    7.8130 H         1 <0>         0.1012
     56 H21         1.6052   -9.2978    6.9613 H         1 <0>         0.0764
     57 H22         0.4702   -8.2276    7.8270 H         1 <0>         0.0777
     58 H23         3.4252  -12.3920   10.2530 H         1 <0>         0.1300
     59 H24         4.3198  -14.4238    9.1879 H         1 <0>         0.1260
     60 H25         2.7912  -16.0192    8.1011 H         1 <0>         0.1250
     61 H26         0.3678  -15.5831    8.0801 H         1 <0>         0.1273
     62 H27        -0.5276  -13.5554    9.1524 H         1 <0>         0.1262
     63 H28        -0.1885  -11.6411   12.8607 H         1 <0>         0.0466
     64 H29         0.7798  -13.1117   12.5998 H         1 <0>         0.0480
     65 H30         1.3721  -11.8385   13.6936 H         1 <0>         0.0959
     66 H31         2.2773   -0.5956   -1.0057 H         1 <0>         0.4255
@<TRIPOS>BOND
     1    1    2 1
     2    1   38 1
     3    1   39 1
     4    1   40 1
     5    2    7 1
     6    2    3 1
     7    2   66 1
     8    3    4 1
     9    3   41 1
    10    3   42 1
    11    4    5 1
    12    4   43 1
    13    4   44 1
    14    5    6 1
    15    5    8 1
    16    6    7 1
    17    6   45 1
    18    6   46 1
    19    7   47 1
    20    7   48 1
    21    8   13 ar
    22    8    9 ar
    23    9   10 ar
    24    9   49 1
    25   10   11 ar
    26   10   50 1
    27   11   12 ar
    28   11   14 1
    29   12   13 ar
    30   12   51 1
    31   13   52 1
    32   14   15 2
    33   14   16 am
    34   16   53 1
    35   16   17 1
    36   17   18 2
    37   17   22 1
    38   18   19 1
    39   18   25 1
    40   19   20 2
    41   19   23 1
    42   20   22 1
    43   21   22 1
    44   23   24 1
    45   23   54 1
    46   23   55 1
    47   24   25 1
    48   24   26 am
    49   25   56 1
    50   25   57 1
    51   26   27 2
    52   26   28 1
    53   28   29 1
    54   28   30 1
    55   28   36 1
    56   30   35 ar
    57   30   31 ar
    58   31   32 ar
    59   31   58 1
    60   32   33 ar
    61   32   59 1
    62   33   34 ar
    63   33   60 1
    64   34   35 ar
    65   34   61 1
    66   35   62 1
    67   36   37 1
    68   37   63 1
    69   37   64 1
    70   37   65 1
@<TRIPOS>MOLECULE
CHEMBL495735
   66    71     0     0     0
SMALL
USER_CHARGES

@<TRIPOS>ATOM
      1 C1         -0.0694    1.5189    0.0711 C.3       1 <0>        -0.0469
      2 N1         -0.0407    0.0503    0.0592 N.4       1 <0>        -0.3836
      3 C2         -1.4159   -0.4643    0.0532 C.3       1 <0>        -0.0238
      4 C3         -1.3884   -1.9910   -0.0748 C.3       1 <0>         0.1010
      5 N2         -0.5418   -2.5338    0.9988 N.pl3     1 <0>        -0.6431
      6 C4          0.7998   -1.9584    1.1816 C.3       1 <0>         0.0997
      7 C5          0.6690   -0.4333    1.2503 C.3       1 <0>        -0.0227
      8 C6         -0.9994   -3.5672    1.8226 C.ar      1 <0>         0.2038
      9 C7         -2.3140   -4.0148    1.7084 C.ar      1 <0>        -0.1824
     10 C8         -2.7766   -5.0227    2.5052 C.ar      1 <0>        -0.0245
     11 C9         -1.9283   -5.6156    3.4459 C.ar      1 <0>         0.0322
     12 C10        -0.6013   -5.1665    3.5632 C.ar      1 <0>         0.0869
     13 C11        -0.1419   -4.1452    2.7448 C.ar      1 <0>        -0.1797
     14 N3         -0.0204   -5.9304    4.5593 N.pl3     1 <0>        -0.5833
     15 C12        -0.9782   -6.8013    5.0126 C.2       1 <0>         0.3990
     16 N4         -2.0974   -6.6106    4.3534 N.2       1 <0>        -0.5298
     17 C13        -0.7810   -7.7992    6.0774 C.2       1 <0>        -0.3015
     18 C14        -1.7885   -8.7193    6.3725 C.2       1 <0>         0.3705
     19 C15        -1.5441   -9.6951    7.4427 C.ar      1 <0>        -0.0994
     20 C16        -2.5126  -10.6426    7.7856 C.ar      1 <0>        -0.1382
     21 C17        -2.2530  -11.5485    8.7974 C.ar      1 <0>         0.1955
     22 C18        -1.0332  -11.5169    9.4711 C.ar      1 <0>        -0.1206
     23 C19        -0.0732  -10.5864    9.1401 C.ar      1 <0>        -0.1129
     24 C20        -0.3149   -9.6667    8.1247 C.ar      1 <0>         0.1594
     25 N5          0.6423   -8.7292    7.7832 N.am      1 <0>        -0.6341
     26 H1          1.4865   -8.7193    8.2607 H         1 <0>         0.4174
     27 C21         0.4333   -7.8346    6.8033 C.2       1 <0>         0.5798
     28 O1          1.3093   -7.0305    6.5359 O.2       1 <0>        -0.5732
     29 N6         -3.2180  -12.4994    9.1464 N.pl3     1 <0>        -0.7413
     30 C22        -2.9453  -13.4604   10.2181 C.3       1 <0>         0.1659
     31 C23        -4.1361  -14.3670   10.3947 C.ar      1 <0>        -0.1139
     32 C24        -5.1461  -14.0185   11.2718 C.ar      1 <0>        -0.1001
     33 C25        -6.2383  -14.8501   11.4339 C.ar      1 <0>        -0.1215
     34 C26        -6.3208  -16.0301   10.7185 C.ar      1 <0>        -0.1088
     35 C27        -5.3112  -16.3782    9.8408 C.ar      1 <0>        -0.1214
     36 C28        -4.2210  -15.5445    9.6755 C.ar      1 <0>        -0.1001
     37 N7         -2.9763   -8.7120    5.6811 N.pl3     1 <0>        -0.8026
     38 H2          0.9510    1.9023    0.0676 H         1 <0>         0.1245
     39 H3         -0.5959    1.8792   -0.8126 H         1 <0>         0.1248
     40 H4         -0.5844    1.8650    0.9673 H         1 <0>         0.1214
     41 H5         -1.9121   -0.1864    0.9831 H         1 <0>         0.1326
     42 H6         -1.9596   -0.0386   -0.7902 H         1 <0>         0.1404
     43 H7         -2.4001   -2.3849    0.0220 H         1 <0>         0.1282
     44 H8         -0.9748   -2.2699   -1.0439 H         1 <0>         0.0871
     45 H9          1.2348   -2.3309    2.1091 H         1 <0>         0.1253
     46 H10         1.4344   -2.2341    0.3394 H         1 <0>         0.0869
     47 H11         1.6616    0.0152    1.2890 H         1 <0>         0.1400
     48 H12         0.1098   -0.1564    2.1440 H         1 <0>         0.1324
     49 H13        -2.9731   -3.5602    0.9836 H         1 <0>         0.1283
     50 H14        -3.7975   -5.3618    2.4092 H         1 <0>         0.1341
     51 H15         0.8778   -3.7995    2.8288 H         1 <0>         0.1221
     52 H16        -3.4579  -10.6667    7.2638 H         1 <0>         0.1307
     53 H17        -0.8391  -12.2284   10.2601 H         1 <0>         0.1369
     54 H18         0.8682  -10.5708    9.6693 H         1 <0>         0.1411
     55 H19        -4.0675  -12.5226    8.6788 H         1 <0>         0.4032
     56 H20        -2.0704  -14.0562    9.9580 H         1 <0>         0.0709
     57 H21        -2.7561  -12.9238   11.1478 H         1 <0>         0.0709
     58 H22        -5.0817  -13.0966   11.8307 H         1 <0>         0.1237
     59 H23        -7.0271  -14.5781   12.1196 H         1 <0>         0.1254
     60 H24        -7.1738  -16.6802   10.8457 H         1 <0>         0.1250
     61 H25        -5.3754  -17.3003    9.2821 H         1 <0>         0.1254
     62 H26        -3.4340  -15.8146    8.9870 H         1 <0>         0.1237
     63 H27        -3.0931   -8.1170    4.9239 H         1 <0>         0.4301
     64 H28        -3.6979   -9.3018    5.9503 H         1 <0>         0.4025
     65 H29         0.4389   -0.2689   -0.7692 H         1 <0>         0.4244
     66 H30         0.8934   -5.8630    4.8776 H         1 <0>         0.4361
@<TRIPOS>BOND
     1    1    2 1
     2    1   38 1
     3    1   39 1
     4    1   40 1
     5    2    7 1
     6    2    3 1
     7    2   65 1
     8    3    4 1
     9    3   41 1
    10    3   42 1
    11    4    5 1
    12    4   43 1
    13    4   44 1
    14    5    6 1
    15    5    8 1
    16    6    7 1
    17    6   45 1
    18    6   46 1
    19    7   47 1
    20    7   48 1
    21    8   13 ar
    22    8    9 ar
    23    9   10 ar
    24    9   49 1
    25   10   11 ar
    26   10   50 1
    27   11   16 1
    28   11   12 ar
    29   12   13 ar
    30   12   14 1
    31   13   51 1
    32   14   15 1
    33   14   66 1
    34   15   16 2
    35   15   17 1
    36   17   27 1
    37   17   18 2
    38   18   19 1
    39   18   37 1
    40   19   24 ar
    41   19   20 ar
    42   20   21 ar
    43   20   52 1
    44   21   22 ar
    45   21   29 1
    46   22   23 ar
    47   22   53 1
    48   23   24 ar
    49   23   54 1
    50   24   25 1
    51   25   26 1
    52   25   27 am
    53   27   28 2
    54   29   30 1
    55   29   55 1
    56   30   31 1
    57   30   56 1
    58   30   57 1
    59   31   36 ar
    60   31   32 ar
    61   32   33 ar
    62   32   58 1
    63   33   34 ar
    64   33   59 1
    65   34   35 ar
    66   34   60 1
    67   35   36 ar
    68   35   61 1
    69   36   62 1
    70   37   63 1
    71   37   64 1
@<TRIPOS>MOLECULE
CHEMBL495735__1
   65    70     0     0     0
SMALL
USER_CHARGES

@<TRIPOS>ATOM
      1 C1          0.0161    1.3970   -0.1073 C.3       1 <0>         0.0244
      2 N1          0.0405   -0.0717   -0.0927 N.3       1 <0>        -0.5426
      3 C2         -1.3178   -0.6218   -0.1936 C.3       1 <0>         0.0381
      4 C3         -1.2383   -2.1434   -0.3573 C.3       1 <0>         0.1276
      5 N2         -0.4260   -2.6895    0.7406 N.pl3     1 <0>        -0.6322
      6 C4          0.8954   -2.0944    0.9913 C.3       1 <0>         0.1275
      7 C5          0.7318   -0.5748    1.1019 C.3       1 <0>         0.0389
      8 C6         -0.8982   -3.7470    1.5259 C.ar      1 <0>         0.2166
      9 C7         -2.1985   -4.2153    1.3483 C.ar      1 <0>        -0.1742
     10 C8         -2.6756   -5.2565    2.1156 C.ar      1 <0>        -0.0593
     11 C9         -1.8592   -5.8437    3.0712 C.ar      1 <0>        -0.0050
     12 C10        -0.5462   -5.3781    3.2576 C.ar      1 <0>         0.1135
     13 C11        -0.0703   -4.3250    2.4699 C.ar      1 <0>        -0.1717
     14 N3          0.0100   -6.1265    4.2423 N.2       1 <0>        -0.5446
     15 C12        -0.8612   -7.0115    4.6703 C.2       1 <0>         0.3953
     16 N4         -2.0351   -6.8776    3.9768 N.pl3     1 <0>        -0.5810
     17 H1         -2.8387   -7.4074    4.0971 H         1 <0>         0.4327
     18 C13        -0.6133   -7.9988    5.7342 C.2       1 <0>        -0.2929
     19 C14         0.5793   -7.9650    6.4594 C.2       1 <0>         0.3629
     20 C15         0.7797   -8.9707    7.5108 C.ar      1 <0>        -0.0963
     21 C16         1.9515   -8.9899    8.2723 C.ar      1 <0>        -0.1365
     22 C17         2.1110   -9.9489    9.2555 C.ar      1 <0>         0.1915
     23 C18         1.1093  -10.8906    9.4856 C.ar      1 <0>        -0.1236
     24 C19        -0.0485  -10.8793    8.7398 C.ar      1 <0>        -0.1147
     25 C20        -0.2281   -9.9222    7.7462 C.ar      1 <0>         0.1610
     26 N5         -1.3871   -9.9009    6.9925 N.am      1 <0>        -0.6358
     27 H2         -2.0753  -10.5625    7.1641 H         1 <0>         0.4160
     28 C21        -1.5850   -8.9837    6.0315 C.2       1 <0>         0.5774
     29 O1         -2.6254   -9.0028    5.3969 O.2       1 <0>        -0.5669
     30 N6          3.2815   -9.9746   10.0213 N.pl3     1 <0>        -0.7431
     31 C22         3.4528  -10.9897   11.0636 C.3       1 <0>         0.1667
     32 C23         4.7882  -10.7994   11.7355 C.ar      1 <0>        -0.1117
     33 C24         5.9081  -11.4421   11.2418 C.ar      1 <0>        -0.1001
     34 C25         7.1331  -11.2676   11.8581 C.ar      1 <0>        -0.1219
     35 C26         7.2383  -10.4500   12.9678 C.ar      1 <0>        -0.1102
     36 C27         6.1186   -9.8067   13.4610 C.ar      1 <0>        -0.1219
     37 C28         4.8944   -9.9778   12.8421 C.ar      1 <0>        -0.1002
     38 N7          1.5391   -7.0174    6.1964 N.pl3     1 <0>        -0.8035
     39 H3          1.0376    1.7774   -0.1085 H         1 <0>         0.0700
     40 H4         -0.5014    1.7429   -1.0021 H         1 <0>         0.0697
     41 H5         -0.5060    1.7606    0.7777 H         1 <0>         0.0253
     42 H6         -1.8755   -0.3821    0.7117 H         1 <0>         0.0383
     43 H7         -1.8223   -0.1890   -1.0574 H         1 <0>         0.0848
     44 H8         -2.2410   -2.5688   -0.3176 H         1 <0>         0.0865
     45 H9         -0.7725   -2.3850   -1.3126 H         1 <0>         0.0691
     46 H10         1.3033   -2.4875    1.9225 H         1 <0>         0.0871
     47 H11         1.5663   -2.3313    0.1655 H         1 <0>         0.0686
     48 H12         1.7138   -0.1078    1.1775 H         1 <0>         0.0846
     49 H13         0.1456   -0.3357    1.9891 H         1 <0>         0.0382
     50 H14        -2.8363   -3.7598    0.6053 H         1 <0>         0.1294
     51 H15        -3.6845   -5.6146    1.9732 H         1 <0>         0.1227
     52 H16         0.9385   -3.9624    2.6014 H         1 <0>         0.1259
     53 H17         2.7277   -8.2605    8.0937 H         1 <0>         0.1302
     54 H18         1.2425  -11.6360   10.2557 H         1 <0>         0.1347
     55 H19        -0.8176  -11.6142    8.9264 H         1 <0>         0.1396
     56 H20         3.9796   -9.3202    9.8622 H         1 <0>         0.4025
     57 H21         2.6571  -10.8902   11.8020 H         1 <0>         0.0697
     58 H22         3.4100  -11.9821   10.6148 H         1 <0>         0.0699
     59 H23         5.8259  -12.0808   10.3748 H         1 <0>         0.1240
     60 H24         8.0079  -11.7702   11.4728 H         1 <0>         0.1248
     61 H25         8.1952  -10.3142   13.4497 H         1 <0>         0.1241
     62 H26         6.2007   -9.1682   14.3282 H         1 <0>         0.1247
     63 H27         4.0203   -9.4722   13.2251 H         1 <0>         0.1239
     64 H28         1.3604   -6.3108    5.5564 H         1 <0>         0.4319
     65 H29         2.3952   -7.0552    6.6507 H         1 <0>         0.3996
@<TRIPOS>BOND
     1    1    2 1
     2    1   39 1
     3    1   40 1
     4    1   41 1
     5    2    7 1
     6    2    3 1
     7    3    4 1
     8    3   42 1
     9    3   43 1
    10    4    5 1
    11    4   44 1
    12    4   45 1
    13    5    6 1
    14    5    8 1
    15    6    7 1
    16    6   46 1
    17    6   47 1
    18    7   48 1
    19    7   49 1
    20    8   13 ar
    21    8    9 ar
    22    9   10 ar
    23    9   50 1
    24   10   11 ar
    25   10   51 1
    26   11   16 1
    27   11   12 ar
    28   12   13 ar
    29   12   14 1
    30   13   52 1
    31   14   15 2
    32   15   16 1
    33   15   18 1
    34   16   17 1
    35   18   28 1
    36   18   19 2
    37   19   20 1
    38   19   38 1
    39   20   25 ar
    40   20   21 ar
    41   21   22 ar
    42   21   53 1
    43   22   23 ar
    44   22   30 1
    45   23   24 ar
    46   23   54 1
    47   24   25 ar
    48   24   55 1
    49   25   26 1
    50   26   27 1
    51   26   28 am
    52   28   29 2
    53   30   31 1
    54   30   56 1
    55   31   32 1
    56   31   57 1
    57   31   58 1
    58   32   37 ar
    59   32   33 ar
    60   33   34 ar
    61   33   59 1
    62   34   35 ar
    63   34   60 1
    64   35   36 ar
    65   35   61 1
    66   36   37 ar
    67   36   62 1
    68   37   63 1
    69   38   64 1
    70   38   65 1
@<TRIPOS>MOLECULE
CHEMBL495735__2
   66    71     0     0     0
SMALL
USER_CHARGES

@<TRIPOS>ATOM
      1 C1          0.0141    1.3893   -0.1095 C.3       1 <0>        -0.0468
      2 N1          0.0390   -0.0794   -0.0942 N.4       1 <0>        -0.3835
      3 C2         -1.3375   -0.5906   -0.1021 C.3       1 <0>        -0.0236
      4 C3         -1.3130   -2.1194   -0.2019 C.3       1 <0>         0.1013
      5 N2         -0.4765   -2.6445    0.8883 N.pl3     1 <0>        -0.6445
      6 C4          0.8650   -2.0693    1.0716 C.3       1 <0>         0.1006
      7 C5          0.7376   -0.5428    1.1112 C.3       1 <0>        -0.0229
      8 C6         -0.9438   -3.6620    1.7276 C.ar      1 <0>         0.1918
      9 C7         -2.2589   -4.1077    1.6103 C.ar      1 <0>        -0.1732
     10 C8         -2.7315   -5.1094    2.4312 C.ar      1 <0>        -0.0531
     11 C9         -1.8957   -5.6793    3.3804 C.ar      1 <0>         0.0090
     12 C10        -0.5677   -5.2363    3.5060 C.ar      1 <0>         0.1118
     13 C11        -0.0968   -4.2235    2.6646 C.ar      1 <0>        -0.1528
     14 N3          0.0057   -5.9605    4.4989 N.2       1 <0>        -0.5470
     15 C12        -0.8688   -6.8099    4.9880 C.2       1 <0>         0.4139
     16 N4         -2.0624   -6.6755    4.3290 N.pl3     1 <0>        -0.5797
     17 H1         -2.8724   -7.1826    4.4954 H         1 <0>         0.4376
     18 C13        -0.6058   -7.7630    6.0790 C.2       1 <0>        -0.3030
     19 C14         0.6108   -7.7287    6.7633 C.2       1 <0>         0.3729
     20 C15         0.8255   -8.6997    7.8441 C.ar      1 <0>        -0.1013
     21 C16         2.0214   -8.7166    8.5672 C.ar      1 <0>        -0.1383
     22 C17         2.1940   -9.6425    9.5795 C.ar      1 <0>         0.1948
     23 C18         1.1816  -10.5533    9.8768 C.ar      1 <0>        -0.1194
     24 C19         0.0000  -10.5441    9.1691 C.ar      1 <0>        -0.1129
     25 C20        -0.1931   -9.6201    8.1472 C.ar      1 <0>         0.1616
     26 N5         -1.3758   -9.6011    7.4314 N.am      1 <0>        -0.6339
     27 H2         -2.0713  -10.2410    7.6497 H         1 <0>         0.4182
     28 C21        -1.5869   -8.7154    6.4440 C.2       1 <0>         0.5788
     29 O1         -2.6481   -8.7350    5.8448 O.2       1 <0>        -0.5688
     30 N6          3.3886   -9.6656   10.3072 N.pl3     1 <0>        -0.7413
     31 C22         3.5738  -10.6457   11.3802 C.3       1 <0>         0.1657
     32 C23         4.9345  -10.4601   12.0008 C.ar      1 <0>        -0.1136
     33 C24         6.0240  -11.1442   11.4950 C.ar      1 <0>        -0.1001
     34 C25         7.2721  -10.9740   12.0642 C.ar      1 <0>        -0.1214
     35 C26         7.4309  -10.1192   13.1389 C.ar      1 <0>        -0.1089
     36 C27         6.3416   -9.4343   13.6441 C.ar      1 <0>        -0.1215
     37 C28         5.0942   -9.6013   13.0722 C.ar      1 <0>        -0.1002
     38 N7          1.5804   -6.8123    6.4343 N.pl3     1 <0>        -0.8034
     39 H3          1.0354    1.7700   -0.1117 H         1 <0>         0.1243
     40 H4         -0.5044    1.7346   -1.0039 H         1 <0>         0.1244
     41 H5         -0.5073    1.7531    0.7759 H         1 <0>         0.1211
     42 H6         -1.8405   -0.2945    0.8185 H         1 <0>         0.1322
     43 H7         -1.8732   -0.1791   -0.9576 H         1 <0>         0.1397
     44 H8         -2.3265   -2.5090   -0.1062 H         1 <0>         0.1269
     45 H9         -0.8922   -2.4170   -1.1624 H         1 <0>         0.0864
     46 H10         1.2914   -2.4257    2.0092 H         1 <0>         0.1268
     47 H11         1.5057   -2.3619    0.2397 H         1 <0>         0.0861
     48 H12         1.7311   -0.0961    1.1499 H         1 <0>         0.1395
     49 H13         0.1719   -0.2482    1.9951 H         1 <0>         0.1321
     50 H14        -2.9118   -3.6655    0.8724 H         1 <0>         0.1289
     51 H15        -3.7519   -5.4501    2.3355 H         1 <0>         0.1291
     52 H16         0.9232   -3.8786    2.7491 H         1 <0>         0.1266
     53 H17         2.8060   -8.0111    8.3366 H         1 <0>         0.1301
     54 H18         1.3251  -11.2730   10.6692 H         1 <0>         0.1372
     55 H19        -0.7773  -11.2550    9.4077 H         1 <0>         0.1417
     56 H20         4.0942   -9.0327   10.1014 H         1 <0>         0.4028
     57 H21         2.8054  -10.5023   12.1399 H         1 <0>         0.0710
     58 H22         3.4958  -11.6526   10.9701 H         1 <0>         0.0711
     59 H23         5.8999  -11.8121   10.6554 H         1 <0>         0.1238
     60 H24         8.1232  -11.5091   11.6695 H         1 <0>         0.1254
     61 H25         8.4059   -9.9867   13.5841 H         1 <0>         0.1250
     62 H26         6.4655   -8.7667   14.4840 H         1 <0>         0.1253
     63 H27         4.2438   -9.0634   13.4645 H         1 <0>         0.1237
     64 H28         1.3948   -6.1254    5.7750 H         1 <0>         0.4296
     65 H29         2.4504   -6.8523    6.8614 H         1 <0>         0.4020
     66 H30         0.5244   -0.4148   -0.9127 H         1 <0>         0.4244
@<TRIPOS>BOND
     1    1    2 1
     2    1   39 1
     3    1   40 1
     4    1   41 1
     5    2    7 1
     6    2    3 1
     7    2   66 1
     8    3    4 1
     9    3   42 1
    10    3   43 1
    11    4    5 1
    12    4   44 1
    13    4   45 1
    14    5    6 1
    15    5    8 1
    16    6    7 1
    17    6   46 1
    18    6   47 1
    19    7   48 1
    20    7   49 1
    21    8   13 ar
    22    8    9 ar
    23    9   10 ar
    24    9   50 1
    25   10   11 ar
    26   10   51 1
    27   11   16 1
    28   11   12 ar
    29   12   13 ar
    30   12   14 1
    31   13   52 1
    32   14   15 2
    33   15   16 1
    34   15   18 1
    35   16   17 1
    36   18   28 1
    37   18   19 2
    38   19   20 1
    39   19   38 1
    40   20   25 ar
    41   20   21 ar
    42   21   22 ar
    43   21   53 1
    44   22   23 ar
    45   22   30 1
    46   23   24 ar
    47   23   54 1
    48   24   25 ar
    49   24   55 1
    50   25   26 1
    51   26   27 1
    52   26   28 am
    53   28   29 2
    54   30   31 1
    55   30   56 1
    56   31   32 1
    57   31   57 1
    58   31   58 1
    59   32   37 ar
    60   32   33 ar
    61   33   34 ar
    62   33   59 1
    63   34   35 ar
    64   34   60 1
    65   35   36 ar
    66   35   61 1
    67   36   37 ar
    68   36   62 1
    69   37   63 1
    70   38   64 1
    71   38   65 1
@<TRIPOS>MOLECULE
CHEMBL495530
   65    70     0     0     0
SMALL
USER_CHARGES

@<TRIPOS>ATOM
      1 C1          1.2372    1.5244    0.8249 C.3       1 <0>        -0.0468
      2 N1          1.1259    0.0625    0.7333 N.4       1 <0>        -0.3837
      3 C2         -0.2897   -0.3132    0.6285 C.3       1 <0>        -0.0238
      4 C3         -0.4011   -1.8268    0.4178 C.3       1 <0>         0.1009
      5 N2          0.3280   -2.5034    1.5016 N.pl3     1 <0>        -0.6430
      6 C4          1.7060   -2.0729    1.7843 C.3       1 <0>         0.0995
      7 C5          1.7180   -0.5476    1.9305 C.3       1 <0>        -0.0227
      8 C6         -0.2720   -3.5267    2.2426 C.ar      1 <0>         0.2049
      9 C7         -1.6132   -3.8408    2.0320 C.ar      1 <0>        -0.1822
     10 C8         -2.2141   -4.8370    2.7470 C.ar      1 <0>        -0.0239
     11 C9         -1.4823   -5.5525    3.7003 C.ar      1 <0>         0.0318
     12 C10        -0.1290   -5.2383    3.9147 C.ar      1 <0>         0.0878
     13 C11         0.4713   -4.2275    3.1787 C.ar      1 <0>        -0.1802
     14 N3          0.3176   -6.1006    4.8996 N.pl3     1 <0>        -0.5832
     15 C12        -0.7422   -6.8966    5.2522 C.2       1 <0>         0.3979
     16 N4         -1.7972   -6.5689    4.5430 N.2       1 <0>        -0.5289
     17 C13        -0.7026   -7.9583    6.2719 C.2       1 <0>        -0.3020
     18 C14        -1.8096   -8.7864    6.4665 C.2       1 <0>         0.3745
     19 C15        -1.7213   -9.8306    7.4956 C.ar      1 <0>        -0.1321
     20 C16        -2.7944  -10.6920    7.7386 C.ar      1 <0>        -0.0788
     21 C17        -2.6810  -11.6655    8.7138 C.ar      1 <0>         0.1228
     22 C18        -1.5038  -11.7868    9.4503 C.ar      1 <0>        -0.0474
     23 C19        -0.4413  -10.9421    9.2180 C.ar      1 <0>        -0.1432
     24 C20        -0.5353   -9.9565    8.2404 C.ar      1 <0>         0.2054
     25 N5          0.5254   -9.1043    7.9978 N.am      1 <0>        -0.6344
     26 H1          1.3385   -9.2009    8.5180 H         1 <0>         0.4204
     27 C21         0.4598   -8.1488    7.0562 C.2       1 <0>         0.5810
     28 O1          1.4234   -7.4246    6.8762 O.2       1 <0>        -0.5663
     29 N6         -3.7522  -12.5321    8.9628 N.am      1 <0>        -0.6704
     30 C22        -3.5164  -13.8148    9.3026 C.2       1 <0>         0.5646
     31 O2         -2.3753  -14.1997    9.4685 O.2       1 <0>        -0.5135
     32 C23        -4.6453  -14.7536    9.4735 C.ar      1 <0>        -0.1434
     33 C24        -5.9565  -14.3163    9.2781 C.ar      1 <0>        -0.0859
     34 C25        -7.0055  -15.1976    9.4393 C.ar      1 <0>        -0.1263
     35 C26        -6.7602  -16.5124    9.7938 C.ar      1 <0>        -0.0861
     36 C27        -5.4630  -16.9523    9.9890 C.ar      1 <0>        -0.1252
     37 C28        -4.4046  -16.0828    9.8254 C.ar      1 <0>        -0.0546
     38 N7         -2.9503   -8.6286    5.7163 N.pl3     1 <0>        -0.8019
     39 H2          2.2881    1.8051    0.8948 H         1 <0>         0.1245
     40 H3          0.7981    1.9786   -0.0633 H         1 <0>         0.1249
     41 H4          0.7081    1.8742    1.7113 H         1 <0>         0.1214
     42 H5         -0.8085   -0.0347    1.5458 H         1 <0>         0.1326
     43 H6         -0.7418    0.2057   -0.2168 H         1 <0>         0.1406
     44 H7         -1.4497   -2.1236    0.4408 H         1 <0>         0.1283
     45 H8          0.0378   -2.0962   -0.5428 H         1 <0>         0.0873
     46 H9          2.0505   -2.5323    2.7108 H         1 <0>         0.1254
     47 H10         2.3577   -2.3671    0.9617 H         1 <0>         0.0871
     48 H11         2.7452   -0.2015    2.0447 H         1 <0>         0.1401
     49 H12         1.1384   -0.2621    2.8084 H         1 <0>         0.1324
     50 H13        -2.1826   -3.2912    1.2970 H         1 <0>         0.1287
     51 H14        -3.2543   -5.0721    2.5766 H         1 <0>         0.1344
     52 H15         1.5118   -3.9853    3.3371 H         1 <0>         0.1224
     53 H16        -3.7068  -10.5977    7.1685 H         1 <0>         0.1376
     54 H17        -1.4244  -12.5499   10.2104 H         1 <0>         0.1553
     55 H18         0.4658  -11.0447    9.7952 H         1 <0>         0.1468
     56 H19        -4.6641  -12.2092    8.8906 H         1 <0>         0.4131
     57 H20        -6.1492  -13.2902    9.0017 H         1 <0>         0.1251
     58 H21        -8.0204  -14.8605    9.2888 H         1 <0>         0.1322
     59 H22        -7.5851  -17.1982    9.9190 H         1 <0>         0.1313
     60 H23        -5.2784  -17.9799   10.2656 H         1 <0>         0.1341
     61 H24        -3.3922  -16.4286    9.9736 H         1 <0>         0.1387
     62 H25        -2.9672   -7.9880    4.9882 H         1 <0>         0.4314
     63 H26        -3.7385   -9.1579    5.9150 H         1 <0>         0.4022
     64 H27         1.6186   -0.2604   -0.0859 H         1 <0>         0.4245
     65 H28         1.2129   -6.1360    5.2712 H         1 <0>         0.4361
@<TRIPOS>BOND
     1    1    2 1
     2    1   39 1
     3    1   40 1
     4    1   41 1
     5    2    7 1
     6    2    3 1
     7    2   64 1
     8    3    4 1
     9    3   42 1
    10    3   43 1
    11    4    5 1
    12    4   44 1
    13    4   45 1
    14    5    6 1
    15    5    8 1
    16    6    7 1
    17    6   46 1
    18    6   47 1
    19    7   48 1
    20    7   49 1
    21    8   13 ar
    22    8    9 ar
    23    9   10 ar
    24    9   50 1
    25   10   11 ar
    26   10   51 1
    27   11   16 1
    28   11   12 ar
    29   12   13 ar
    30   12   14 1
    31   13   52 1
    32   14   15 1
    33   14   65 1
    34   15   16 2
    35   15   17 1
    36   17   27 1
    37   17   18 2
    38   18   19 1
    39   18   38 1
    40   19   24 ar
    41   19   20 ar
    42   20   21 ar
    43   20   53 1
    44   21   22 ar
    45   21   29 1
    46   22   23 ar
    47   22   54 1
    48   23   24 ar
    49   23   55 1
    50   24   25 1
    51   25   26 1
    52   25   27 am
    53   27   28 2
    54   29   30 am
    55   29   56 1
    56   30   31 2
    57   30   32 1
    58   32   37 ar
    59   32   33 ar
    60   33   34 ar
    61   33   57 1
    62   34   35 ar
    63   34   58 1
    64   35   36 ar
    65   35   59 1
    66   36   37 ar
    67   36   60 1
    68   37   61 1
    69   38   62 1
    70   38   63 1
@<TRIPOS>MOLECULE
CHEMBL495530__1
   64    69     0     0     0
SMALL
USER_CHARGES

@<TRIPOS>ATOM
      1 C1          0.4924   -1.7827   -2.9585 C.3       1 <0>         0.0244
      2 N1         -0.1573   -1.9580   -1.6527 N.3       1 <0>        -0.5426
      3 C2          0.7752   -2.5321   -0.6736 C.3       1 <0>         0.0385
      4 C3          0.1207   -2.5305    0.7120 C.3       1 <0>         0.1268
      5 N2         -1.1784   -3.2133    0.6159 N.pl3     1 <0>        -0.6320
      6 C4         -2.1145   -2.7834   -0.4340 C.3       1 <0>         0.1280
      7 C5         -1.3720   -2.7750   -1.7745 C.3       1 <0>         0.0384
      8 C6         -1.5151   -4.2442    1.5001 C.ar      1 <0>         0.2173
      9 C7         -2.7927   -4.7993    1.4629 C.ar      1 <0>        -0.1730
     10 C8         -3.1370   -5.8155    2.3286 C.ar      1 <0>        -0.0592
     11 C9         -2.2086   -6.2906    3.2434 C.ar      1 <0>        -0.0046
     12 C10        -0.9175   -5.7368    3.2883 C.ar      1 <0>         0.1136
     13 C11        -0.5769   -4.7103    2.4018 C.ar      1 <0>        -0.1724
     14 N3         -0.2351   -6.3861    4.2639 N.2       1 <0>        -0.5440
     15 C12        -1.0092   -7.2919    4.8169 C.2       1 <0>         0.3943
     16 N4         -2.2423   -7.2728    4.2202 N.pl3     1 <0>        -0.5808
     17 H1         -2.9975   -7.8402    4.4405 H         1 <0>         0.4327
     18 C13        -0.6118   -8.1915    5.9127 C.2       1 <0>        -0.2933
     19 C14         0.6338   -8.0436    6.5259 C.2       1 <0>         0.3669
     20 C15         0.9838   -8.9652    7.6147 C.ar      1 <0>        -0.1288
     21 C16         2.2147   -8.8691    8.2690 C.ar      1 <0>        -0.0775
     22 C17         2.5153   -9.7510    9.2907 C.ar      1 <0>         0.1175
     23 C18         1.5963  -10.7295    9.6657 C.ar      1 <0>        -0.0502
     24 C19         0.3809  -10.8319    9.0262 C.ar      1 <0>        -0.1447
     25 C20         0.0594   -9.9537    7.9960 C.ar      1 <0>         0.2064
     26 N5         -1.1578  -10.0468    7.3479 N.am      1 <0>        -0.6357
     27 H2         -1.7874  -10.7327    7.6201 H         1 <0>         0.4190
     28 C21        -1.4926   -9.2072    6.3545 C.2       1 <0>         0.5783
     29 O1         -2.5801   -9.3260    5.8171 O.2       1 <0>        -0.5601
     30 N6          3.7470   -9.6609    9.9505 N.am      1 <0>        -0.6690
     31 C22         3.8262   -9.9285   11.2691 C.2       1 <0>         0.5633
     32 O2          2.8453  -10.3226   11.8694 O.2       1 <0>        -0.5144
     33 C23         5.1059   -9.7428   11.9852 C.ar      1 <0>        -0.1412
     34 C24         6.2326   -9.2849   11.3001 C.ar      1 <0>        -0.0856
     35 C25         7.4237   -9.1133   11.9746 C.ar      1 <0>        -0.1264
     36 C26         7.5031   -9.3939   13.3272 C.ar      1 <0>        -0.0879
     37 C27         6.3901   -9.8485   14.0121 C.ar      1 <0>        -0.1261
     38 C28         5.1915  -10.0190   13.3509 C.ar      1 <0>        -0.0553
     39 N7          1.5080   -7.0637    6.1217 N.pl3     1 <0>        -0.8027
     40 H3         -0.1955   -1.2864   -3.6429 H         1 <0>         0.0701
     41 H4          1.3889   -1.1742   -2.8396 H         1 <0>         0.0697
     42 H5          0.7660   -2.7577   -3.3620 H         1 <0>         0.0253
     43 H6          1.0186   -3.5554   -0.9597 H         1 <0>         0.0383
     44 H7          1.6868   -1.9352   -0.6459 H         1 <0>         0.0846
     45 H8          0.7602   -3.0582    1.4196 H         1 <0>         0.0876
     46 H9         -0.0291   -1.5035    1.0450 H         1 <0>         0.0689
     47 H10        -2.9528   -3.4783   -0.4841 H         1 <0>         0.0861
     48 H11        -2.4792   -1.7807   -0.2112 H         1 <0>         0.0691
     49 H12        -2.0177   -2.3542   -2.5453 H         1 <0>         0.0850
     50 H13        -1.0987   -3.7949   -2.0453 H         1 <0>         0.0384
     51 H14        -3.5176   -4.4311    0.7519 H         1 <0>         0.1298
     52 H15        -4.1290   -6.2412    2.2949 H         1 <0>         0.1231
     53 H16         0.4136   -4.2805    2.4246 H         1 <0>         0.1263
     54 H17         2.9270   -8.1112    7.9783 H         1 <0>         0.1371
     55 H18         1.8397  -11.4140   10.4648 H         1 <0>         0.1532
     56 H19        -0.3232  -11.5945    9.3246 H         1 <0>         0.1453
     57 H20         4.5432   -9.4060    9.4586 H         1 <0>         0.4124
     58 H21         6.1721   -9.0658   10.2443 H         1 <0>         0.1258
     59 H22         8.2963   -8.7594   11.4457 H         1 <0>         0.1317
     60 H23         8.4379   -9.2579   13.8505 H         1 <0>         0.1303
     61 H24         6.4589  -10.0664   15.0677 H         1 <0>         0.1331
     62 H25         4.3223  -10.3693   13.8877 H         1 <0>         0.1385
     63 H26         1.2338   -6.4135    5.4562 H         1 <0>         0.4332
     64 H27         2.3994   -7.0221    6.5019 H         1 <0>         0.3993
@<TRIPOS>BOND
     1    1    2 1
     2    1   40 1
     3    1   41 1
     4    1   42 1
     5    2    7 1
     6    2    3 1
     7    3    4 1
     8    3   43 1
     9    3   44 1
    10    4    5 1
    11    4   45 1
    12    4   46 1
    13    5    6 1
    14    5    8 1
    15    6    7 1
    16    6   47 1
    17    6   48 1
    18    7   49 1
    19    7   50 1
    20    8   13 ar
    21    8    9 ar
    22    9   10 ar
    23    9   51 1
    24   10   11 ar
    25   10   52 1
    26   11   16 1
    27   11   12 ar
    28   12   13 ar
    29   12   14 1
    30   13   53 1
    31   14   15 2
    32   15   16 1
    33   15   18 1
    34   16   17 1
    35   18   28 1
    36   18   19 2
    37   19   20 1
    38   19   39 1
    39   20   25 ar
    40   20   21 ar
    41   21   22 ar
    42   21   54 1
    43   22   23 ar
    44   22   30 1
    45   23   24 ar
    46   23   55 1
    47   24   25 ar
    48   24   56 1
    49   25   26 1
    50   26   27 1
    51   26   28 am
    52   28   29 2
    53   30   31 am
    54   30   57 1
    55   31   32 2
    56   31   33 1
    57   33   38 ar
    58   33   34 ar
    59   34   35 ar
    60   34   58 1
    61   35   36 ar
    62   35   59 1
    63   36   37 ar
    64   36   60 1
    65   37   38 ar
    66   37   61 1
    67   38   62 1
    68   39   63 1
    69   39   64 1
@<TRIPOS>MOLECULE
CHEMBL495530__2
   65    70     0     0     0
SMALL
USER_CHARGES

@<TRIPOS>ATOM
      1 C1         -1.0883    0.8355   -0.4435 C.3       1 <0>        -0.0467
      2 N1         -0.9744   -0.6263   -0.3519 N.4       1 <0>        -0.3837
      3 C2         -2.3130   -1.2114   -0.2039 C.3       1 <0>        -0.0236
      4 C3         -2.2062   -2.7398   -0.2235 C.3       1 <0>         0.1011
      5 N2         -1.2450   -3.1534    0.8105 N.pl3     1 <0>        -0.6444
      6 C4          0.0707   -2.4960    0.8367 C.3       1 <0>         0.1005
      7 C5         -0.1435   -0.9791    0.8062 C.3       1 <0>        -0.0229
      8 C6         -1.5732   -4.1437    1.7430 C.ar      1 <0>         0.1924
      9 C7         -2.8627   -4.6712    1.7688 C.ar      1 <0>        -0.1725
     10 C8         -3.1987   -5.6473    2.6826 C.ar      1 <0>        -0.0529
     11 C9         -2.2500   -6.1092    3.5832 C.ar      1 <0>         0.0094
     12 C10        -0.9468   -5.5831    3.5647 C.ar      1 <0>         0.1118
     13 C11        -0.6149   -4.5973    2.6299 C.ar      1 <0>        -0.1528
     14 N3         -0.2455   -6.2114    4.5407 N.2       1 <0>        -0.5463
     15 C12        -1.0193   -7.0790    5.1522 C.2       1 <0>         0.4130
     16 N4         -2.2712   -7.0542    4.5964 N.pl3     1 <0>        -0.5795
     17 H1         -3.0303   -7.5964    4.8624 H         1 <0>         0.4376
     18 C13        -0.6040   -7.9467    6.2669 C.2       1 <0>        -0.3036
     19 C14         0.6645   -7.8043    6.8327 C.2       1 <0>         0.3769
     20 C15         1.0317   -8.6932    7.9428 C.ar      1 <0>        -0.1339
     21 C16         2.2859   -8.6007    8.5521 C.ar      1 <0>        -0.0787
     22 C17         2.6023   -9.4512    9.5954 C.ar      1 <0>         0.1221
     23 C18         1.6762  -10.3948   10.0365 C.ar      1 <0>        -0.0467
     24 C19         0.4380  -10.4934    9.4418 C.ar      1 <0>        -0.1430
     25 C20         0.1002   -9.6464    8.3909 C.ar      1 <0>         0.2073
     26 N5         -1.1399   -9.7360    7.7873 N.am      1 <0>        -0.6342
     27 H2         -1.7741  -10.3974    8.1054 H         1 <0>         0.4212
     28 C21        -1.4904   -8.9259    6.7750 C.2       1 <0>         0.5799
     29 O1         -2.5977   -9.0400    6.2786 O.2       1 <0>        -0.5619
     30 N6          3.8572   -9.3645   10.2103 N.am      1 <0>        -0.6704
     31 C22         3.9754   -9.5856   11.5345 C.2       1 <0>         0.5643
     32 O2          3.0073   -9.9356   12.1812 O.2       1 <0>        -0.5129
     33 C23         5.2822   -9.4024   12.2006 C.ar      1 <0>        -0.1432
     34 C24         6.3945   -8.9950   11.4621 C.ar      1 <0>        -0.0861
     35 C25         7.6111   -8.8255   12.0901 C.ar      1 <0>        -0.1265
     36 C26         7.7302   -9.0584   13.4487 C.ar      1 <0>        -0.0862
     37 C27         6.6318   -9.4628   14.1865 C.ar      1 <0>        -0.1250
     38 C28         5.4081   -9.6305   13.5720 C.ar      1 <0>        -0.0545
     39 N7          1.5449   -6.8593    6.3638 N.pl3     1 <0>        -0.8027
     40 H3         -0.0958    1.2705   -0.5614 H         1 <0>         0.1244
     41 H4         -1.7049    1.0987   -1.3029 H         1 <0>         0.1245
     42 H5         -1.5486    1.2217    0.4659 H         1 <0>         0.1212
     43 H6         -2.7477   -0.8895    0.7424 H         1 <0>         0.1322
     44 H7         -2.9471   -0.8808   -1.0265 H         1 <0>         0.1399
     45 H8         -3.1819   -3.1778   -0.0129 H         1 <0>         0.1269
     46 H9         -1.8566   -3.0700   -1.2016 H         1 <0>         0.0866
     47 H10         0.6005   -2.7728    1.7482 H         1 <0>         0.1268
     48 H11         0.6502   -2.8016   -0.0344 H         1 <0>         0.0862
     49 H12         0.8210   -0.4773    0.7279 H         1 <0>         0.1396
     50 H13        -0.6439   -0.6642    1.7219 H         1 <0>         0.1321
     51 H14        -3.6033   -4.3132    1.0690 H         1 <0>         0.1293
     52 H15        -4.1999   -6.0518    2.6976 H         1 <0>         0.1294
     53 H16         0.3846   -4.1891    2.6040 H         1 <0>         0.1269
     54 H17         3.0036   -7.8698    8.2101 H         1 <0>         0.1371
     55 H18         1.9321  -11.0550   10.8521 H         1 <0>         0.1555
     56 H19        -0.2715  -11.2288    9.7914 H         1 <0>         0.1474
     57 H20         4.6414   -9.1454    9.6832 H         1 <0>         0.4128
     58 H21         6.3029   -8.8132   10.4015 H         1 <0>         0.1249
     59 H22         8.4725   -8.5106   11.5198 H         1 <0>         0.1319
     60 H23         8.6849   -8.9242   13.9355 H         1 <0>         0.1313
     61 H24         6.7317   -9.6436   15.2466 H         1 <0>         0.1343
     62 H25         4.5504   -9.9416   14.1499 H         1 <0>         0.1389
     63 H26         1.2619   -6.2279    5.6840 H         1 <0>         0.4308
     64 H27         2.4493   -6.8237    6.7125 H         1 <0>         0.4018
     65 H28        -0.5455   -0.9823   -1.1930 H         1 <0>         0.4244
@<TRIPOS>BOND
     1    1    2 1
     2    1   40 1
     3    1   41 1
     4    1   42 1
     5    2    7 1
     6    2    3 1
     7    2   65 1
     8    3    4 1
     9    3   43 1
    10    3   44 1
    11    4    5 1
    12    4   45 1
    13    4   46 1
    14    5    6 1
    15    5    8 1
    16    6    7 1
    17    6   47 1
    18    6   48 1
    19    7   49 1
    20    7   50 1
    21    8   13 ar
    22    8    9 ar
    23    9   10 ar
    24    9   51 1
    25   10   11 ar
    26   10   52 1
    27   11   16 1
    28   11   12 ar
    29   12   13 ar
    30   12   14 1
    31   13   53 1
    32   14   15 2
    33   15   16 1
    34   15   18 1
    35   16   17 1
    36   18   28 1
    37   18   19 2
    38   19   20 1
    39   19   39 1
    40   20   25 ar
    41   20   21 ar
    42   21   22 ar
    43   21   54 1
    44   22   23 ar
    45   22   30 1
    46   23   24 ar
    47   23   55 1
    48   24   25 ar
    49   24   56 1
    50   25   26 1
    51   26   27 1
    52   26   28 am
    53   28   29 2
    54   30   31 am
    55   30   57 1
    56   31   32 2
    57   31   33 1
    58   33   38 ar
    59   33   34 ar
    60   34   35 ar
    61   34   58 1
    62   35   36 ar
    63   35   59 1
    64   36   37 ar
    65   36   60 1
    66   37   38 ar
    67   37   61 1
    68   38   62 1
    69   39   63 1
    70   39   64 1
@<TRIPOS>MOLECULE
CHEMBL477772
   55    58     0     0     0
SMALL
USER_CHARGES

@<TRIPOS>ATOM
      1 C1          4.8550    0.0644   -0.1564 C.3       1 <0>        -0.1869
      2 C2          4.1130   -1.2471   -0.1373 C.ar      1 <0>         0.0344
      3 C3          3.0199   -1.4335   -0.9639 C.ar      1 <0>        -0.1029
      4 C4          2.3377   -2.6340   -0.9488 C.ar      1 <0>        -0.1086
      5 C5          2.7505   -3.6551   -0.1021 C.ar      1 <0>         0.0793
      6 C6          3.8485   -3.4646    0.7266 C.ar      1 <0>        -0.0079
      7 C7          4.5299   -2.2633    0.7025 C.ar      1 <0>        -0.6503
      8 S1          5.9278   -2.0233    1.7479 S.o2      1 <0>         2.7023
      9 O1          5.7339   -0.7789    2.4061 O.2       1 <0>        -0.9435
     10 O2          6.1174   -3.2393    2.4581 O.2       1 <0>        -0.9530
     11 N1          7.2479   -1.8383    0.7653 N.pl3     1 <0>        -1.2455
     12 N2          2.0618   -4.8717   -0.0840 N.pl3     1 <0>        -0.6161
     13 C8          1.6506   -5.4525   -1.2725 C.ar      1 <0>         0.6554
     14 N3          2.0291   -4.9109   -2.4210 N.ar      1 <0>        -0.5769
     15 C9          1.6556   -5.4374   -3.5780 C.ar      1 <0>         0.2082
     16 C10         0.8608   -6.5673   -3.5812 C.ar      1 <0>        -0.2605
     17 C11         0.4781   -7.1160   -2.3554 C.ar      1 <0>         0.5154
     18 N4          0.8935   -6.5384   -1.2323 N.ar      1 <0>        -0.5510
     19 N5         -0.3194   -8.2490   -2.3102 N.pl3     1 <0>        -0.5011
     20 C12        -0.9543   -8.7470   -3.5329 C.3       1 <0>         0.0690
     21 C13        -0.5176   -8.9162   -1.0982 C.ar      1 <0>         0.1506
     22 C14        -1.6153   -8.5676   -0.2972 C.ar      1 <0>        -0.1610
     23 C15        -1.8550   -9.1812    0.8869 C.ar      1 <0>        -0.0082
     24 C16        -0.9846  -10.1987    1.3349 C.ar      1 <0>        -0.2079
     25 C17        -0.9297  -11.0085    2.4539 C.2       1 <0>         0.1217
     26 N6          0.1424  -11.8034    2.3353 N.pl3     1 <0>        -0.3103
     27 N7          0.8101  -11.5292    1.1362 N.2       1 <0>        -0.2974
     28 C18         0.1676  -10.5678    0.4977 C.ar      1 <0>         0.1038
     29 C19         0.3572   -9.8931   -0.7266 C.ar      1 <0>        -0.0735
     30 C20         0.5548  -12.8107    3.3159 C.3       1 <0>         0.0805
     31 C21        -1.9031  -10.9985    3.6043 C.3       1 <0>        -0.1011
     32 H1          5.6496    0.0215   -0.9013 H         1 <0>         0.0977
     33 H2          4.1642    0.8691   -0.4081 H         1 <0>         0.0977
     34 H3          5.2880    0.2513    0.8263 H         1 <0>         0.1151
     35 H4          2.6992   -0.6391   -1.6216 H         1 <0>         0.1546
     36 H5          1.4840   -2.7788   -1.5942 H         1 <0>         0.1384
     37 H6          4.1718   -4.2563    1.3862 H         1 <0>         0.1631
     38 H7          7.1442   -1.8748   -0.1984 H         1 <0>         0.4166
     39 H8          8.1250   -1.6933    1.1536 H         1 <0>         0.4287
     40 H9          1.8719   -5.3090    0.7607 H         1 <0>         0.4510
     41 H10         1.9690   -4.9879   -4.5086 H         1 <0>         0.2180
     42 H11         0.5423   -7.0159   -4.5105 H         1 <0>         0.1895
     43 H12        -0.2892   -9.4570   -4.0245 H         1 <0>         0.0864
     44 H13        -1.8916   -9.2426   -3.2797 H         1 <0>         0.1025
     45 H14        -1.1546   -7.9121   -4.2044 H         1 <0>         0.0922
     46 H15        -2.2859   -7.7904   -0.6326 H         1 <0>         0.1248
     47 H16        -2.7070   -8.8933    1.4849 H         1 <0>         0.1331
     48 H17         1.1920  -10.1463   -1.3633 H         1 <0>         0.1303
     49 H18         0.0824  -13.7638    3.0783 H         1 <0>         0.0924
     50 H19         1.6384  -12.9247    3.2859 H         1 <0>         0.1019
     51 H20         0.2504  -12.4929    4.3131 H         1 <0>         0.0998
     52 H21        -2.7129  -11.6991    3.4011 H         1 <0>         0.0934
     53 H22        -1.3881  -11.2936    4.5186 H         1 <0>         0.0813
     54 H23        -2.3122   -9.9955    3.7254 H         1 <0>         0.0937
     55 H24         2.5872   -4.1176   -2.4147 H         1 <0>         0.4405
@<TRIPOS>BOND
     1    1    2 1
     2    1   32 1
     3    1   33 1
     4    1   34 1
     5    2    7 ar
     6    2    3 ar
     7    3    4 ar
     8    3   35 1
     9    4    5 ar
    10    4   36 1
    11    5    6 ar
    12    5   12 1
    13    6    7 ar
    14    6   37 1
    15    7    8 1
    16    8    9 2
    17    8   10 2
    18    8   11 1
    19   11   38 1
    20   11   39 1
    21   12   13 1
    22   12   40 1
    23   13   18 ar
    24   13   14 ar
    25   14   15 ar
    26   14   55 1
    27   15   16 ar
    28   15   41 1
    29   16   17 ar
    30   16   42 1
    31   17   18 ar
    32   17   19 1
    33   19   20 1
    34   19   21 1
    35   20   43 1
    36   20   44 1
    37   20   45 1
    38   21   29 ar
    39   21   22 ar
    40   22   23 ar
    41   22   46 1
    42   23   24 ar
    43   23   47 1
    44   24   28 ar
    45   24   25 2
    46   25   26 1
    47   25   31 1
    48   26   27 1
    49   26   30 1
    50   27   28 2
    51   28   29 ar
    52   29   48 1
    53   30   49 1
    54   30   50 1
    55   30   51 1
    56   31   52 1
    57   31   53 1
    58   31   54 1
@<TRIPOS>MOLECULE
CHEMBL383618
   32    35     0     0     0
SMALL
USER_CHARGES

@<TRIPOS>ATOM
      1 C1         -0.0201    1.3728   -0.0560 C.ar      1 <0>        -0.1064
      2 C2          1.1657    2.0928   -0.0258 C.ar      1 <0>        -0.1243
      3 C3          2.3783    1.4423   -0.0153 C.ar      1 <0>        -0.0748
      4 C4          2.4167    0.0442   -0.0347 C.ar      1 <0>         0.0606
      5 C5          1.2121   -0.6799   -0.0647 C.ar      1 <0>         0.0454
      6 C6         -0.0005   -0.0061   -0.0754 C.ar      1 <0>        -0.1081
      7 N1          1.5650   -2.0172   -0.0785 N.pl3     1 <0>        -0.5814
      8 H1          0.9572   -2.7729   -0.0998 H         1 <0>         0.4350
      9 C7          2.9340   -2.0749   -0.0572 C.2       1 <0>         0.3870
     10 N2          3.4283   -0.8586   -0.0314 N.2       1 <0>        -0.5329
     11 C8          3.7304   -3.3137   -0.0619 C.2       1 <0>        -0.2838
     12 C9          5.1211   -3.2538   -0.1659 C.2       1 <0>         0.3609
     13 C10         5.8659   -4.5186   -0.1652 C.ar      1 <0>        -0.1079
     14 C11         7.2600   -4.5567   -0.2646 C.ar      1 <0>        -0.1005
     15 C12         7.8868   -5.7849   -0.2565 C.ar      1 <0>         0.0662
     16 N3          7.1942   -6.9056   -0.1579 N.ar      1 <0>        -0.4334
     17 C13         5.8816   -6.9224   -0.0619 C.ar      1 <0>         0.0802
     18 C14         5.1612   -5.7316   -0.0611 C.ar      1 <0>         0.1595
     19 N4          3.7858   -5.7227    0.0379 N.am      1 <0>        -0.6291
     20 C15         3.0901   -4.5728    0.0450 C.2       1 <0>         0.5784
     21 O1          1.8759   -4.6147    0.1400 O.2       1 <0>        -0.5533
     22 N5          5.7724   -2.0486   -0.2662 N.pl3     1 <0>        -0.7984
     23 H2         -0.9650    1.8958   -0.0597 H         1 <0>         0.1303
     24 H3          1.1367    3.1723   -0.0109 H         1 <0>         0.1297
     25 H4          3.2972    2.0093    0.0075 H         1 <0>         0.1283
     26 H5         -0.9272   -0.5602   -0.0985 H         1 <0>         0.1231
     27 H6          7.8329   -3.6449   -0.3463 H         1 <0>         0.1476
     28 H7          8.9631   -5.8316   -0.3326 H         1 <0>         0.1693
     29 H8          5.3607   -7.8653    0.0162 H         1 <0>         0.1731
     30 H9          5.2744   -1.2201   -0.1863 H         1 <0>         0.4348
     31 H10         6.7304   -2.0261   -0.4168 H         1 <0>         0.4026
     32 H11         3.3102   -6.5651    0.1091 H         1 <0>         0.4225
@<TRIPOS>BOND
     1    1    6 ar
     2    1    2 ar
     3    1   23 1
     4    2    3 ar
     5    2   24 1
     6    3    4 ar
     7    3   25 1
     8    4   10 1
     9    4    5 ar
    10    5    6 ar
    11    5    7 1
    12    6   26 1
    13    7    8 1
    14    7    9 1
    15    9   10 2
    16    9   11 1
    17   11   20 1
    18   11   12 2
    19   12   13 1
    20   12   22 1
    21   13   18 ar
    22   13   14 ar
    23   14   15 ar
    24   14   27 1
    25   15   16 ar
    26   15   28 1
    27   16   17 ar
    28   17   18 ar
    29   17   29 1
    30   18   19 1
    31   19   20 am
    32   19   32 1
    33   20   21 2
    34   22   30 1
    35   22   31 1
@<TRIPOS>MOLECULE
CHEMBL108013
   59    62     0     0     0
SMALL
USER_CHARGES

@<TRIPOS>ATOM
      1 C1         -0.0178    1.4608    0.0101 C.3       1 <0>         0.0614
      2 N1          0.0021   -0.0041    0.0020 N.am      1 <0>        -0.5217
      3 C2         -1.1832   -0.7026    0.0039 C.ar      1 <0>         0.2711
      4 C3         -2.4056   -0.0412    0.0132 C.ar      1 <0>        -0.2961
      5 C4         -3.5734   -0.7908    0.0143 C.ar      1 <0>         0.4431
      6 N2         -3.5407   -2.1192    0.0065 N.ar      1 <0>        -0.5572
      7 C5         -2.4109   -2.7924   -0.0026 C.ar      1 <0>         0.2353
      8 C6         -1.1855   -2.1147   -0.0043 C.ar      1 <0>        -0.2335
      9 C7          0.0397   -2.8227   -0.0135 C.2       1 <0>         0.0250
     10 C8          1.2142   -2.1207   -0.0144 C.2       1 <0>        -0.1632
     11 C9          1.1810   -0.6564   -0.0127 C.2       1 <0>         0.5522
     12 O1          2.2233   -0.0259   -0.0189 O.2       1 <0>        -0.5098
     13 C10         2.5110   -2.8371   -0.0239 C.ar      1 <0>        -0.0115
     14 C11         3.1266   -3.1880    1.1783 C.ar      1 <0>        -0.0074
     15 C12         4.3355   -3.8557    1.1624 C.ar      1 <0>        -0.1059
     16 C13         4.9362   -4.1763   -0.0417 C.ar      1 <0>        -0.0870
     17 C14         4.3313   -3.8315   -1.2369 C.ar      1 <0>        -0.1059
     18 C15         3.1193   -3.1691   -1.2351 C.ar      1 <0>        -0.0073
     19 Cl1         2.3582   -2.7435   -2.7362 Cl        1 <0>        -0.0521
     20 Cl2         2.3749   -2.7855    2.6904 Cl        1 <0>        -0.0514
     21 N3         -4.7988   -0.1407    0.0241 N.pl3     1 <0>        -0.7183
     22 C16        -4.8513    1.3233    0.0332 C.3       1 <0>         0.1257
     23 C17        -6.3112    1.7812    0.0430 C.3       1 <0>        -0.1306
     24 C18        -6.3660    3.3102    0.0525 C.3       1 <0>         0.0582
     25 N4         -7.7676    3.7499    0.0619 N.3       1 <0>        -0.5392
     26 C19        -8.4413    3.3889   -1.1936 C.3       1 <0>         0.0196
     27 C20        -9.9106    3.8101   -1.1199 C.3       1 <0>        -0.0029
     28 N5         -9.9941    5.2598   -0.8986 N.4       1 <0>        -0.3885
     29 C21        -9.3386    5.6016    0.3706 C.3       1 <0>        -0.0028
     30 C22        -7.8646    5.1954    0.3094 C.3       1 <0>         0.0252
     31 C23       -11.4047    5.6663   -0.8460 C.3       1 <0>        -0.0461
     32 H1          1.0048    1.8381    0.0023 H         1 <0>         0.1048
     33 H2         -0.5450    1.8219   -0.8730 H         1 <0>         0.0753
     34 H3         -0.5280    1.8123    0.9069 H         1 <0>         0.0761
     35 H4         -2.4459    1.0381    0.0200 H         1 <0>         0.1394
     36 H5         -2.4284   -3.8722   -0.0087 H         1 <0>         0.1754
     37 H6          0.0476   -3.9026   -0.0194 H         1 <0>         0.1468
     38 H7          4.8130   -4.1278    2.0921 H         1 <0>         0.1442
     39 H8          5.8819   -4.6979   -0.0486 H         1 <0>         0.1462
     40 H9          4.8055   -4.0847   -2.1736 H         1 <0>         0.1440
     41 H10        -5.6209   -0.6556    0.0249 H         1 <0>         0.4092
     42 H11        -4.3466    1.6994    0.9231 H         1 <0>         0.0699
     43 H12        -4.3551    1.7102   -0.8568 H         1 <0>         0.0666
     44 H13        -6.8159    1.4051   -0.8469 H         1 <0>         0.0730
     45 H14        -6.8074    1.3943    0.9330 H         1 <0>         0.0869
     46 H15        -5.8613    3.6863    0.9424 H         1 <0>         0.0937
     47 H16        -5.8698    3.6971   -0.8375 H         1 <0>         0.0517
     48 H17        -7.9576    3.9003   -2.0259 H         1 <0>         0.0619
     49 H18        -8.3789    2.3110   -1.3429 H         1 <0>         0.1253
     50 H19       -10.4087    3.5561   -2.0556 H         1 <0>         0.1362
     51 H20       -10.3972    3.2882   -0.2960 H         1 <0>         0.1380
     52 H21        -9.4127    6.6758    0.5400 H         1 <0>         0.1367
     53 H22        -9.8282    5.0705    1.1869 H         1 <0>         0.1381
     54 H23        -7.3815    5.4354    1.2565 H         1 <0>         0.1248
     55 H24        -7.3714    5.7365   -0.4982 H         1 <0>         0.0618
     56 H25       -11.9030    5.1447   -0.0289 H         1 <0>         0.1235
     57 H26       -11.4669    6.7421   -0.6818 H         1 <0>         0.1247
     58 H27       -11.8910    5.4139   -1.7883 H         1 <0>         0.1246
     59 H28        -9.5333    5.7424   -1.6555 H         1 <0>         0.4225
@<TRIPOS>BOND
     1    1    2 1
     2    1   32 1
     3    1   33 1
     4    1   34 1
     5    2   11 am
     6    2    3 1
     7    3    8 ar
     8    3    4 ar
     9    4    5 ar
    10    4   35 1
    11    5    6 ar
    12    5   21 1
    13    6    7 ar
    14    7    8 ar
    15    7   36 1
    16    8    9 1
    17    9   10 2
    18    9   37 1
    19   10   11 1
    20   10   13 1
    21   11   12 2
    22   13   18 ar
    23   13   14 ar
    24   14   15 ar
    25   14   20 1
    26   15   16 ar
    27   15   38 1
    28   16   17 ar
    29   16   39 1
    30   17   18 ar
    31   17   40 1
    32   18   19 1
    33   21   22 1
    34   21   41 1
    35   22   23 1
    36   22   42 1
    37   22   43 1
    38   23   24 1
    39   23   44 1
    40   23   45 1
    41   24   25 1
    42   24   46 1
    43   24   47 1
    44   25   30 1
    45   25   26 1
    46   26   27 1
    47   26   48 1
    48   26   49 1
    49   27   28 1
    50   27   50 1
    51   27   51 1
    52   28   29 1
    53   28   31 1
    54   28   59 1
    55   29   30 1
    56   29   52 1
    57   29   53 1
    58   30   54 1
    59   30   55 1
    60   31   56 1
    61   31   57 1
    62   31   58 1
@<TRIPOS>MOLECULE
CHEMBL108013__1
   59    62     0     0     0
SMALL
USER_CHARGES

@<TRIPOS>ATOM
      1 C1         -0.0178    1.4608    0.0101 C.3       1 <0>         0.0611
      2 N1          0.0021   -0.0041    0.0020 N.am      1 <0>        -0.5218
      3 C2         -1.1832   -0.7026    0.0039 C.ar      1 <0>         0.2708
      4 C3         -2.4056   -0.0412    0.0132 C.ar      1 <0>        -0.2944
      5 C4         -3.5734   -0.7908    0.0143 C.ar      1 <0>         0.4402
      6 N2         -3.5407   -2.1192    0.0065 N.ar      1 <0>        -0.5552
      7 C5         -2.4109   -2.7924   -0.0026 C.ar      1 <0>         0.2354
      8 C6         -1.1855   -2.1147   -0.0043 C.ar      1 <0>        -0.2274
      9 C7          0.0397   -2.8227   -0.0135 C.2       1 <0>         0.0207
     10 C8          1.2142   -2.1207   -0.0144 C.2       1 <0>        -0.1565
     11 C9          1.1810   -0.6564   -0.0127 C.2       1 <0>         0.5512
     12 O1          2.2233   -0.0259   -0.0189 O.2       1 <0>        -0.5058
     13 C10         2.5110   -2.8371   -0.0239 C.ar      1 <0>        -0.0148
     14 C11         3.1266   -3.1880    1.1783 C.ar      1 <0>        -0.0070
     15 C12         4.3355   -3.8557    1.1624 C.ar      1 <0>        -0.1054
     16 C13         4.9362   -4.1763   -0.0417 C.ar      1 <0>        -0.0856
     17 C14         4.3313   -3.8315   -1.2369 C.ar      1 <0>        -0.1054
     18 C15         3.1193   -3.1691   -1.2351 C.ar      1 <0>        -0.0069
     19 Cl1         2.3582   -2.7435   -2.7362 Cl        1 <0>        -0.0517
     20 Cl2         2.3749   -2.7855    2.6904 Cl        1 <0>        -0.0517
     21 N3         -4.7988   -0.1407    0.0241 N.pl3     1 <0>        -0.7229
     22 C16        -4.8513    1.3233    0.0332 C.3       1 <0>         0.1315
     23 C17        -6.3112    1.7812    0.0430 C.3       1 <0>        -0.1635
     24 C18        -6.3660    3.3102    0.0525 C.3       1 <0>        -0.0044
     25 N4         -7.7676    3.7499    0.0619 N.4       1 <0>        -0.3862
     26 C19        -8.4162    3.3439   -1.1920 C.3       1 <0>        -0.0074
     27 C20        -9.8813    3.7852   -1.1747 C.3       1 <0>         0.0244
     28 N5         -9.9485    5.2451   -1.0186 N.3       1 <0>        -0.5437
     29 C21        -9.2812    5.6688    0.2204 C.3       1 <0>         0.0237
     30 C22        -7.8209    5.2120    0.1917 C.3       1 <0>        -0.0019
     31 C23       -11.3399    5.7149   -1.0544 C.3       1 <0>         0.0191
     32 H1          1.0048    1.8381    0.0023 H         1 <0>         0.1059
     33 H2         -0.5450    1.8219   -0.8730 H         1 <0>         0.0756
     34 H3         -0.5280    1.8123    0.9069 H         1 <0>         0.0757
     35 H4         -2.4459    1.0381    0.0200 H         1 <0>         0.1392
     36 H5         -2.4284   -3.8722   -0.0087 H         1 <0>         0.1770
     37 H6          0.0476   -3.9026   -0.0194 H         1 <0>         0.1482
     38 H7          4.8130   -4.1278    2.0921 H         1 <0>         0.1447
     39 H8          5.8819   -4.6979   -0.0486 H         1 <0>         0.1469
     40 H9          4.8055   -4.0847   -2.1736 H         1 <0>         0.1447
     41 H10        -5.6209   -0.6556    0.0249 H         1 <0>         0.4104
     42 H11        -4.3466    1.6994    0.9231 H         1 <0>         0.0762
     43 H12        -4.3551    1.7102   -0.8568 H         1 <0>         0.0764
     44 H13        -6.8159    1.4051   -0.8469 H         1 <0>         0.0972
     45 H14        -6.8074    1.3943    0.9330 H         1 <0>         0.0969
     46 H15        -5.8613    3.6863    0.9424 H         1 <0>         0.1366
     47 H16        -5.8698    3.6971   -0.8375 H         1 <0>         0.1361
     48 H17        -7.9055    3.8123   -2.0334 H         1 <0>         0.1393
     49 H18        -8.3644    2.2599   -1.2934 H         1 <0>         0.1364
     50 H19       -10.3589    3.4972   -2.1113 H         1 <0>         0.1243
     51 H20       -10.3956    3.3063   -0.3415 H         1 <0>         0.0608
     52 H21        -9.3209    6.7550    0.3018 H         1 <0>         0.1249
     53 H22        -9.7856    5.2209    1.0766 H         1 <0>         0.0609
     54 H23        -7.3279    5.5129    1.1161 H         1 <0>         0.1372
     55 H24        -7.3134    5.6708   -0.6568 H         1 <0>         0.1391
     56 H25       -11.9011    5.2505   -0.2435 H         1 <0>         0.0400
     57 H26       -11.3607    6.7983   -0.9367 H         1 <0>         0.0845
     58 H27       -11.7903    5.4444   -2.0094 H         1 <0>         0.0849
     59 H28        -8.2478    3.3255    0.8412 H         1 <0>         0.4213
@<TRIPOS>BOND
     1    1    2 1
     2    1   32 1
     3    1   33 1
     4    1   34 1
     5    2   11 am
     6    2    3 1
     7    3    8 ar
     8    3    4 ar
     9    4    5 ar
    10    4   35 1
    11    5    6 ar
    12    5   21 1
    13    6    7 ar
    14    7    8 ar
    15    7   36 1
    16    8    9 1
    17    9   10 2
    18    9   37 1
    19   10   11 1
    20   10   13 1
    21   11   12 2
    22   13   18 ar
    23   13   14 ar
    24   14   15 ar
    25   14   20 1
    26   15   16 ar
    27   15   38 1
    28   16   17 ar
    29   16   39 1
    30   17   18 ar
    31   17   40 1
    32   18   19 1
    33   21   22 1
    34   21   41 1
    35   22   23 1
    36   22   42 1
    37   22   43 1
    38   23   24 1
    39   23   44 1
    40   23   45 1
    41   24   25 1
    42   24   46 1
    43   24   47 1
    44   25   30 1
    45   25   26 1
    46   25   59 1
    47   26   27 1
    48   26   48 1
    49   26   49 1
    50   27   28 1
    51   27   50 1
    52   27   51 1
    53   28   29 1
    54   28   31 1
    55   29   30 1
    56   29   52 1
    57   29   53 1
    58   30   54 1
    59   30   55 1
    60   31   56 1
    61   31   57 1
    62   31   58 1
@<TRIPOS>MOLECULE
CHEMBL107277
   64    67     0     0     0
SMALL
USER_CHARGES

@<TRIPOS>ATOM
      1 C1          0.2602    1.1711    0.2616 C.3       1 <0>        -0.1870
      2 C2          0.2241   -0.3448    0.4661 C.3       1 <0>        -0.0177
      3 N1         -1.1573   -0.7709    0.7269 N.4       1 <0>        -0.3873
      4 C3         -1.9770   -0.5336   -0.4689 C.3       1 <0>        -0.0149
      5 C4         -3.4419   -0.8417   -0.1524 C.3       1 <0>        -0.1886
      6 C5         -1.1743   -2.2025    1.0560 C.3       1 <0>        -0.0055
      7 C6         -0.4249   -2.4327    2.3698 C.3       1 <0>         0.0267
      8 O1         -1.1261   -1.7911    3.4369 O.3       1 <0>        -0.3286
      9 C7         -0.5893   -1.8996    4.6817 C.ar      1 <0>         0.0909
     10 C8          0.5908   -2.6044    4.8686 C.ar      1 <0>        -0.1801
     11 C9          1.1364   -2.7155    6.1323 C.ar      1 <0>        -0.0735
     12 C10         0.5035   -2.1209    7.2161 C.ar      1 <0>         0.1459
     13 C11        -0.6776   -1.4151    7.0280 C.ar      1 <0>        -0.1114
     14 C12        -1.2190   -1.3006    5.7628 C.ar      1 <0>        -0.1182
     15 N2          1.0556   -2.2334    8.4975 N.pl3     1 <0>        -0.6557
     16 C13         2.4335   -2.2617    8.6593 C.ar      1 <0>         0.4308
     17 C14         2.9661   -2.5000    9.9190 C.ar      1 <0>        -0.2796
     18 C15         4.3471   -2.5262   10.0697 C.ar      1 <0>         0.2705
     19 C16         5.1502   -2.3080    8.9283 C.ar      1 <0>        -0.2224
     20 C17         6.5604   -2.3268    9.0432 C.2       1 <0>         0.0173
     21 C18         7.1256   -2.5580   10.2678 C.2       1 <0>        -0.1533
     22 C19         6.2640   -2.7806   11.4312 C.2       1 <0>         0.5496
     23 O2          6.7614   -2.9869   12.5239 O.2       1 <0>        -0.5034
     24 N3          4.9233   -2.7580   11.2975 N.am      1 <0>        -0.5202
     25 C20         4.0725   -2.9821   12.4689 C.3       1 <0>         0.0613
     26 C21         8.5994   -2.5835   10.4158 C.ar      1 <0>        -0.0144
     27 C22         9.2992   -3.7801   10.2554 C.ar      1 <0>        -0.0070
     28 C23        10.6732   -3.7970   10.3947 C.ar      1 <0>        -0.1057
     29 C24        11.3556   -2.6313   10.6931 C.ar      1 <0>        -0.0861
     30 C25        10.6679   -1.4418   10.8534 C.ar      1 <0>        -0.1056
     31 C26         9.2945   -1.4099   10.7106 C.ar      1 <0>        -0.0071
     32 Cl1         8.4342    0.0853   10.9045 Cl        1 <0>        -0.0509
     33 Cl2         8.4446   -5.2443    9.8820 Cl        1 <0>        -0.0512
     34 C27         4.5295   -2.0748    7.6952 C.ar      1 <0>         0.2253
     35 N4          3.2174   -2.0654    7.6046 N.ar      1 <0>        -0.5489
     36 H1          1.2948    1.4998    0.1631 H         1 <0>         0.1064
     37 H2         -0.2906    1.4289   -0.6429 H         1 <0>         0.0813
     38 H3         -0.1977    1.6643    1.1190 H         1 <0>         0.0803
     39 H4          0.5943   -0.8413   -0.4309 H         1 <0>         0.1310
     40 H5          0.8532   -0.6120    1.3151 H         1 <0>         0.1289
     41 H6         -1.8825    0.5088   -0.7731 H         1 <0>         0.1329
     42 H7         -1.6361   -1.1804   -1.2773 H         1 <0>         0.1298
     43 H8         -3.5519   -1.9052    0.0596 H         1 <0>         0.0803
     44 H9         -3.7552   -0.2636    0.7169 H         1 <0>         0.0809
     45 H10        -4.0622   -0.5758   -1.0083 H         1 <0>         0.1062
     46 H11        -2.2057   -2.5386    1.1623 H         1 <0>         0.1434
     47 H12        -0.6895   -2.7645    0.2578 H         1 <0>         0.1484
     48 H13        -0.3604   -3.5024    2.5688 H         1 <0>         0.1080
     49 H14         0.5795   -2.0163    2.2929 H         1 <0>         0.0856
     50 H15         1.0828   -3.0667    4.0256 H         1 <0>         0.1284
     51 H16         2.0547   -3.2649    6.2778 H         1 <0>         0.1430
     52 H17        -1.1704   -0.9524    7.8703 H         1 <0>         0.1365
     53 H18        -2.1354   -0.7483    5.6156 H         1 <0>         0.1351
     54 H19         0.4750   -2.2915    9.2724 H         1 <0>         0.4232
     55 H20         2.3180   -2.6620   10.7676 H         1 <0>         0.1471
     56 H21         7.1823   -2.1613    8.1759 H         1 <0>         0.1470
     57 H22         3.8635   -4.0473   12.5678 H         1 <0>         0.0780
     58 H23         4.5849   -2.6277   13.3633 H         1 <0>         0.0977
     59 H24         3.1359   -2.4379   12.3470 H         1 <0>         0.0866
     60 H25        11.2160   -4.7224   10.2708 H         1 <0>         0.1445
     61 H26        12.4299   -2.6500   10.8017 H         1 <0>         0.1466
     62 H27        11.2066   -0.5352   11.0863 H         1 <0>         0.1446
     63 H28         5.1306   -1.9059    6.8139 H         1 <0>         0.1750
     64 H29        -1.5315   -0.2433    1.5013 H         1 <0>         0.4293
@<TRIPOS>BOND
     1    1    2 1
     2    1   36 1
     3    1   37 1
     4    1   38 1
     5    2    3 1
     6    2   39 1
     7    2   40 1
     8    3    4 1
     9    3    6 1
    10    3   64 1
    11    4    5 1
    12    4   41 1
    13    4   42 1
    14    5   43 1
    15    5   44 1
    16    5   45 1
    17    6    7 1
    18    6   46 1
    19    6   47 1
    20    7    8 1
    21    7   48 1
    22    7   49 1
    23    8    9 1
    24    9   14 ar
    25    9   10 ar
    26   10   11 ar
    27   10   50 1
    28   11   12 ar
    29   11   51 1
    30   12   13 ar
    31   12   15 1
    32   13   14 ar
    33   13   52 1
    34   14   53 1
    35   15   16 1
    36   15   54 1
    37   16   35 ar
    38   16   17 ar
    39   17   18 ar
    40   17   55 1
    41   18   24 1
    42   18   19 ar
    43   19   20 1
    44   19   34 ar
    45   20   21 2
    46   20   56 1
    47   21   22 1
    48   21   26 1
    49   22   23 2
    50   22   24 am
    51   24   25 1
    52   25   57 1
    53   25   58 1
    54   25   59 1
    55   26   31 ar
    56   26   27 ar
    57   27   28 ar
    58   27   33 1
    59   28   29 ar
    60   28   60 1
    61   29   30 ar
    62   29   61 1
    63   30   31 ar
    64   30   62 1
    65   31   32 1
    66   34   35 ar
    67   34   63 1
@<TRIPOS>MOLECULE
CHEMBL162
   62    69     0     0     0
SMALL
USER_CHARGES

@<TRIPOS>ATOM
      1 C1         -0.1276    1.5938   -0.2902 C.3       1 <0>        -0.1687
      2 C2         -0.0844    0.0680   -0.1855 C.3       1 <0>         0.3345
      3 C3          0.5692   -0.4497   -1.4608 C.3       1 <0>         0.0405
      4 H1          1.4795    0.1163   -1.6584 H         1 <0>         0.1372
      5 C4          0.9165   -1.9328   -1.2885 C.3       1 <0>        -0.0062
      6 H2          1.3941   -2.3067   -2.1942 H         1 <0>         0.1555
      7 C5          1.8808   -2.0612   -0.1039 C.3       1 <0>        -0.1828
      8 C6          1.2106   -1.5234    1.1545 C.3       1 <0>         0.3001
      9 O1          0.6584   -0.2480    0.9698 O.3       1 <0>        -0.3232
     10 N1          0.2248   -2.4800    1.6600 N.pl3     1 <0>        -0.5368
     11 C7          0.4774   -3.5588    2.4701 C.ar      1 <0>         0.1470
     12 C8          1.6719   -4.0282    3.0159 C.ar      1 <0>        -0.1521
     13 C9          1.6013   -5.1613    3.8083 C.ar      1 <0>        -0.0582
     14 C10         0.4065   -5.8141    4.0588 C.ar      1 <0>        -0.1457
     15 C11        -0.7928   -5.3694    3.5296 C.ar      1 <0>        -0.0281
     16 C12        -0.7420   -4.2270    2.7281 C.ar      1 <0>        -0.1133
     17 C13        -1.7834   -3.4873    2.0211 C.ar      1 <0>         0.0272
     18 C14        -1.1387   -2.4235    1.3862 C.ar      1 <0>         0.0375
     19 C15        -1.8766   -1.5121    0.6225 C.ar      1 <0>         0.0893
     20 N2         -1.4701   -0.3965   -0.1042 N.pl3     1 <0>        -0.5183
     21 C16        -2.5609    0.1893   -0.7020 C.ar      1 <0>         0.1620
     22 C17        -2.6555    1.3256   -1.5046 C.ar      1 <0>        -0.1301
     23 C18        -3.9158    1.6704   -1.9636 C.ar      1 <0>        -0.0737
     24 C19        -5.0430    0.9315   -1.6503 C.ar      1 <0>        -0.1357
     25 C20        -4.9749   -0.2010   -0.8555 C.ar      1 <0>        -0.0503
     26 C21        -3.7134   -0.5626   -0.3834 C.ar      1 <0>        -0.1044
     27 C22        -3.2655   -1.6685    0.4924 C.ar      1 <0>        -0.0362
     28 C23        -3.9045   -2.7331    1.1195 C.ar      1 <0>        -0.0289
     29 C24        -3.1819   -3.6452    1.8815 C.ar      1 <0>        -0.1255
     30 C25        -4.1160   -4.6505    2.4114 C.2       1 <0>         0.5633
     31 O2         -3.7988   -5.5888    3.1172 O.2       1 <0>        -0.5106
     32 N3         -5.3694   -4.3854    2.0058 N.am      1 <0>        -0.7162
     33 C26        -5.3459   -3.1769    1.1740 C.3       1 <0>         0.1359
     34 N4         -0.3065   -2.7008   -1.0194 N.4       1 <0>        -0.5253
     35 C27         0.0148   -4.1335   -0.9747 C.3       1 <0>        -0.0497
     36 O3         -0.3352   -0.2957   -2.5564 O.3       1 <0>        -0.3613
     37 C28         0.3074   -0.0892   -3.8159 C.3       1 <0>         0.0162
     38 H3          0.8308    2.0068    0.0247 H         1 <0>         0.0984
     39 H4         -0.3256    1.8817   -1.3227 H         1 <0>         0.1037
     40 H5         -0.9185    1.9799    0.3528 H         1 <0>         0.0921
     41 H6          2.1400   -3.1098    0.0419 H         1 <0>         0.1233
     42 H7          2.7852   -1.4878   -0.3076 H         1 <0>         0.1455
     43 H8          1.9835   -1.4379    1.9183 H         1 <0>         0.1550
     44 H9          2.6113   -3.5296    2.8282 H         1 <0>         0.1364
     45 H10         2.5093   -5.5494    4.2456 H         1 <0>         0.1359
     46 H11         0.4102   -6.6943    4.6846 H         1 <0>         0.1352
     47 H12        -1.7231   -5.8814    3.7271 H         1 <0>         0.1602
     48 H13        -1.7841    1.9115   -1.7569 H         1 <0>         0.1438
     49 H14        -4.0225    2.5459   -2.5869 H         1 <0>         0.1335
     50 H15        -6.0015    1.2460   -2.0361 H         1 <0>         0.1333
     51 H16        -5.8562   -0.7761   -0.6128 H         1 <0>         0.1416
     52 H17        -6.1577   -4.9060    2.2257 H         1 <0>         0.4348
     53 H18        -5.9609   -2.3989    1.6262 H         1 <0>         0.1115
     54 H19        -5.7062   -3.4047    0.1708 H         1 <0>         0.1104
     55 H20        -0.6946   -2.4153   -0.1328 H         1 <0>         0.4186
     56 H21         0.7414   -4.3184   -0.1836 H         1 <0>         0.1191
     57 H22        -0.8927   -4.7033   -0.7750 H         1 <0>         0.1256
     58 H23         0.4340   -4.4418   -1.9324 H         1 <0>         0.1255
     59 H24        -0.4469    0.0185   -4.5954 H         1 <0>         0.1100
     60 H25         0.9142    0.8152   -3.7703 H         1 <0>         0.0633
     61 H26         0.9451   -0.9435   -4.0429 H         1 <0>         0.0514
     62 H27        -0.9792   -2.5296   -1.7517 H         1 <0>         0.4274
@<TRIPOS>BOND
     1    1    2 1
     2    1   38 1
     3    1   39 1
     4    1   40 1
     5    2    9 1
     6    2   20 1
     7    2    3 1
     8    3    4 1
     9    3    5 1
    10    3   36 1
    11    5    6 1
    12    5    7 1
    13    5   34 1
    14    7    8 1
    15    7   41 1
    16    7   42 1
    17    8    9 1
    18    8   10 1
    19    8   43 1
    20   10   18 1
    21   10   11 1
    22   11   16 ar
    23   11   12 ar
    24   12   13 ar
    25   12   44 1
    26   13   14 ar
    27   13   45 1
    28   14   15 ar
    29   14   46 1
    30   15   16 ar
    31   15   47 1
    32   16   17 1
    33   17   29 ar
    34   17   18 ar
    35   18   19 ar
    36   19   27 ar
    37   19   20 1
    38   20   21 1
    39   21   26 ar
    40   21   22 ar
    41   22   23 ar
    42   22   48 1
    43   23   24 ar
    44   23   49 1
    45   24   25 ar
    46   24   50 1
    47   25   26 ar
    48   25   51 1
    49   26   27 1
    50   27   28 ar
    51   28   33 1
    52   28   29 ar
    53   29   30 1
    54   30   31 2
    55   30   32 am
    56   32   33 1
    57   32   52 1
    58   33   53 1
    59   33   54 1
    60   34   35 1
    61   34   55 1
    62   34   62 1
    63   35   56 1
    64   35   57 1
    65   35   58 1
    66   36   37 1
    67   37   59 1
    68   37   60 1
    69   37   61 1
@<TRIPOS>MOLECULE
CHEMBL162__1
   61    68     0     0     0
SMALL
USER_CHARGES

@<TRIPOS>ATOM
      1 C1         -0.0567    1.5513   -0.0894 C.3       1 <0>        -0.1681
      2 C2         -0.0278    0.0218   -0.0599 C.3       1 <0>         0.3623
      3 C3          0.5811   -0.4397   -1.3782 C.3       1 <0>         0.0679
      4 H1          1.4914    0.1262   -1.5761 H         1 <0>         0.0865
      5 C4          0.9165   -1.9328   -1.2885 C.3       1 <0>         0.0550
      6 H2          1.3622   -2.2669   -2.2254 H         1 <0>         0.0644
      7 C5          1.9146   -2.1282   -0.1417 C.3       1 <0>        -0.1713
      8 C6          1.2889   -1.6457    1.1613 C.3       1 <0>         0.3303
      9 O1          0.7459   -0.3574    1.0554 O.3       1 <0>        -0.3432
     10 N1          0.3079   -2.6158    1.6500 N.pl3     1 <0>        -0.5147
     11 C7          0.5725   -3.7353    2.3988 C.ar      1 <0>         0.1480
     12 C8          1.7775   -4.2425    2.8844 C.ar      1 <0>        -0.1567
     13 C9          1.7179   -5.4120    3.6229 C.ar      1 <0>        -0.0771
     14 C10         0.5239   -6.0644    3.8782 C.ar      1 <0>        -0.1623
     15 C11        -0.6857   -5.5826    3.4081 C.ar      1 <0>        -0.0380
     16 C12        -0.6461   -4.4031    2.6615 C.ar      1 <0>        -0.1052
     17 C13        -1.6998   -3.6196    2.0235 C.ar      1 <0>        -0.0146
     18 C14        -1.0625   -2.5326    1.4212 C.ar      1 <0>         0.1328
     19 C15        -1.8127   -1.5778    0.7254 C.ar      1 <0>         0.2189
     20 N2         -1.4156   -0.4323    0.0413 N.pl3     1 <0>        -0.4798
     21 C16        -2.5171    0.1927   -0.4937 C.ar      1 <0>         0.1719
     22 C17        -2.6230    1.3676   -1.2371 C.ar      1 <0>        -0.1371
     23 C18        -3.8926    1.7468   -1.6400 C.ar      1 <0>        -0.0918
     24 C19        -5.0181    1.0048   -1.3284 C.ar      1 <0>        -0.1543
     25 C20        -4.9390   -0.1657   -0.5916 C.ar      1 <0>        -0.0609
     26 C21        -3.6680   -0.5623   -0.1765 C.ar      1 <0>        -0.0961
     27 C22        -3.2066   -1.7140    0.6307 C.ar      1 <0>        -0.0806
     28 C23        -3.8384   -2.8014    1.2249 C.ar      1 <0>        -0.0396
     29 C24        -3.1037   -3.7566    1.9194 C.ar      1 <0>        -0.1488
     30 C25        -4.0327   -4.7771    2.4285 C.2       1 <0>         0.5678
     31 O2         -3.7051   -5.7517    3.0781 O.2       1 <0>        -0.5303
     32 N3         -5.2947   -4.4802    2.0748 N.am      1 <0>        -0.7263
     33 C26        -5.2825   -3.2330    1.3021 C.3       1 <0>         0.1443
     34 N4         -0.3065   -2.7008   -1.0194 N.3       1 <0>        -0.6725
     35 C27        -0.9816   -3.0711   -2.2704 C.3       1 <0>         0.0321
     36 O3         -0.3541   -0.2236   -2.4368 O.3       1 <0>        -0.3500
     37 C28         0.2525    0.0376   -3.7040 C.3       1 <0>         0.0254
     38 H3          0.9143    1.9390    0.2190 H         1 <0>         0.0847
     39 H4         -0.2789    1.8910   -1.1010 H         1 <0>         0.0945
     40 H5         -0.8258    1.9134    0.5927 H         1 <0>         0.0811
     41 H6          2.1661   -3.1852   -0.0547 H         1 <0>         0.0955
     42 H7          2.8189   -1.5546   -0.3450 H         1 <0>         0.1024
     43 H8          2.0854   -1.6051    1.9042 H         1 <0>         0.1256
     44 H9          2.7165   -3.7447    2.6923 H         1 <0>         0.1264
     45 H10         2.6343   -5.8299    4.0129 H         1 <0>         0.1227
     46 H11         0.5364   -6.9739    4.4603 H         1 <0>         0.1222
     47 H12        -1.6153   -6.0942    3.6091 H         1 <0>         0.1517
     48 H13        -1.7529    1.9564   -1.4875 H         1 <0>         0.1345
     49 H14        -4.0081    2.6526   -2.2167 H         1 <0>         0.1197
     50 H15        -5.9842    1.3471   -1.6689 H         1 <0>         0.1193
     51 H16        -5.8191   -0.7431   -0.3501 H         1 <0>         0.1299
     52 H17        -6.0819   -5.0031    2.2935 H         1 <0>         0.4244
     53 H18        -5.8747   -2.4718    1.8101 H         1 <0>         0.0969
     54 H19        -5.6755   -3.4081    0.3006 H         1 <0>         0.0963
     55 H20        -0.1054   -3.5172   -0.4616 H         1 <0>         0.3444
     56 H21        -1.8838   -3.6387   -2.0422 H         1 <0>         0.0645
     57 H22        -1.2495   -2.1685   -2.8197 H         1 <0>         0.0818
     58 H23        -0.3126   -3.6808   -2.8776 H         1 <0>         0.0150
     59 H24        -0.5237    0.1905   -4.4538 H         1 <0>         0.0929
     60 H25         0.8707    0.9325   -3.6333 H         1 <0>         0.0448
     61 H26         0.8732   -0.8111   -3.9915 H         1 <0>         0.0400
@<TRIPOS>BOND
     1    1    2 1
     2    1   38 1
     3    1   39 1
     4    1   40 1
     5    2    9 1
     6    2   20 1
     7    2    3 1
     8    3    4 1
     9    3    5 1
    10    3   36 1
    11    5    6 1
    12    5    7 1
    13    5   34 1
    14    7    8 1
    15    7   41 1
    16    7   42 1
    17    8    9 1
    18    8   10 1
    19    8   43 1
    20   10   18 1
    21   10   11 1
    22   11   16 ar
    23   11   12 ar
    24   12   13 ar
    25   12   44 1
    26   13   14 ar
    27   13   45 1
    28   14   15 ar
    29   14   46 1
    30   15   16 ar
    31   15   47 1
    32   16   17 1
    33   17   29 ar
    34   17   18 ar
    35   18   19 ar
    36   19   27 ar
    37   19   20 1
    38   20   21 1
    39   21   26 ar
    40   21   22 ar
    41   22   23 ar
    42   22   48 1
    43   23   24 ar
    44   23   49 1
    45   24   25 ar
    46   24   50 1
    47   25   26 ar
    48   25   51 1
    49   26   27 1
    50   27   28 ar
    51   28   33 1
    52   28   29 ar
    53   29   30 1
    54   30   31 2
    55   30   32 am
    56   32   33 1
    57   32   52 1
    58   33   53 1
    59   33   54 1
    60   34   35 1
    61   34   55 1
    62   35   56 1
    63   35   57 1
    64   35   58 1
    65   36   37 1
    66   37   59 1
    67   37   60 1
    68   37   61 1
@<TRIPOS>MOLECULE
CHEMBL377346
   73    79     0     0     0
SMALL
USER_CHARGES

@<TRIPOS>ATOM
      1 C1         -0.0946    1.2364    0.0096 C.ar      1 <0>        -0.1088
      2 C2          1.0862    1.9549   -0.0105 C.ar      1 <0>        -0.1229
      3 C3          2.2989    1.2915   -0.0255 C.ar      1 <0>        -0.0947
      4 C4          2.3308   -0.0904   -0.0201 C.ar      1 <0>        -0.0980
      5 C5          1.1501   -0.8090    0.0009 C.ar      1 <0>        -0.0952
      6 C6         -0.0626   -0.1456    0.0145 C.ar      1 <0>        -0.1236
      7 C7          3.6528   -0.8137   -0.0375 C.3       1 <0>         0.1011
      8 O1          4.0915   -1.0365    1.3041 O.3       1 <0>        -0.3053
      9 C8          5.2768   -1.6826    1.4667 C.ar      1 <0>         0.0979
     10 C9          6.0044   -2.0882    0.3495 C.ar      1 <0>        -0.1430
     11 C10         7.1968   -2.7379    0.4917 C.ar      1 <0>        -0.0969
     12 C11         7.6997   -3.0032    1.7634 C.ar      1 <0>         0.0958
     13 C12         6.9721   -2.5975    2.8961 C.ar      1 <0>        -0.1008
     14 C13         5.7562   -1.9286    2.7370 C.ar      1 <0>        -0.0707
     15 C14         7.7566   -3.0180    4.0633 C.2       1 <0>         0.1451
     16 N1          8.8396   -3.6130    3.6182 N.2       1 <0>        -0.2172
     17 N2          8.8377   -3.6219    2.2199 N.pl3     1 <0>        -0.4860
     18 H1          9.5310   -4.0055    1.6602 H         1 <0>         0.4483
     19 C15         7.3947   -2.8096    5.4790 C.2       1 <0>         0.3738
     20 N3          8.1476   -3.2072    6.5513 N.pl3     1 <0>        -0.5820
     21 H2          9.0001   -3.6686    6.5169 H         1 <0>         0.4300
     22 C16         7.4643   -2.8276    7.6936 C.ar      1 <0>         0.0176
     23 C17         7.7200   -2.9542    9.0518 C.ar      1 <0>        -0.0596
     24 C18         6.8197   -2.4595    9.9705 C.ar      1 <0>        -0.1590
     25 C19         5.6507   -1.8311    9.5446 C.ar      1 <0>         0.2005
     26 C20         5.3811   -1.6969    8.1959 C.ar      1 <0>        -0.1470
     27 C21         6.2879   -2.1952    7.2546 C.ar      1 <0>         0.1004
     28 N4          6.3058   -2.2105    5.8994 N.2       1 <0>        -0.4672
     29 N5          4.7449   -1.3339   10.4879 N.pl3     1 <0>        -0.6356
     30 C22         3.5687   -0.5630   10.0624 C.3       1 <0>         0.1261
     31 C23         2.3148   -1.2028   10.6666 C.3       1 <0>        -0.1595
     32 C24         2.4817   -1.3086   12.1842 C.3       1 <0>         0.0277
     33 C25         3.6824   -2.2011   12.5061 C.3       1 <0>        -0.1593
     34 C26         4.9485   -1.5778   11.9224 C.3       1 <0>         0.1286
     35 N6          1.2674   -1.8914   12.7706 N.4       1 <0>        -0.3809
     36 C27         0.1154   -1.0383   12.4551 C.3       1 <0>        -0.0120
     37 C28        -1.1638   -1.6823   12.9940 C.3       1 <0>        -0.1453
     38 C29        -1.0469   -1.8437   14.5124 C.3       1 <0>        -0.1392
     39 C30         0.2000   -2.6729   14.8332 C.3       1 <0>        -0.1453
     40 C31         1.4286   -1.9923   14.2261 C.3       1 <0>        -0.0114
     41 H3         -1.0419    1.7547    0.0259 H         1 <0>         0.1247
     42 H4          1.0612    3.0346   -0.0147 H         1 <0>         0.1259
     43 H5          3.2213    1.8529   -0.0419 H         1 <0>         0.1247
     44 H6          1.1750   -1.8887    0.0048 H         1 <0>         0.1242
     45 H7         -0.9851   -0.7070    0.0305 H         1 <0>         0.1254
     46 H8          3.5365   -1.7710   -0.5455 H         1 <0>         0.0723
     47 H9          4.3906   -0.2095   -0.5654 H         1 <0>         0.0725
     48 H10         5.6207   -1.8867   -0.6398 H         1 <0>         0.1402
     49 H11         7.7505   -3.0467   -0.3826 H         1 <0>         0.1365
     50 H12         5.1935   -1.6098    3.6020 H         1 <0>         0.1496
     51 H13         8.6237   -3.4403    9.3885 H         1 <0>         0.1300
     52 H14         7.0209   -2.5598   11.0268 H         1 <0>         0.1327
     53 H15         4.4744   -1.2090    7.8700 H         1 <0>         0.1319
     54 H16         3.6593    0.4652   10.4129 H         1 <0>         0.0738
     55 H17         3.4975   -0.5755    8.9748 H         1 <0>         0.1058
     56 H18         1.4456   -0.5861   10.4383 H         1 <0>         0.0979
     57 H19         2.1756   -2.1986   10.2457 H         1 <0>         0.0921
     58 H20         2.6455   -0.3151   12.6016 H         1 <0>         0.1368
     59 H21         3.7865   -2.2949   13.5871 H         1 <0>         0.0977
     60 H22         3.5304   -3.1875   12.0679 H         1 <0>         0.0916
     61 H23         5.7874   -2.2597   12.0616 H         1 <0>         0.1027
     62 H24         5.1542   -0.6342   12.4279 H         1 <0>         0.0728
     63 H25         0.2512   -0.0600   12.9161 H         1 <0>         0.1280
     64 H26         0.0354   -0.9217   11.3743 H         1 <0>         0.1319
     65 H27        -2.0178   -1.0465   12.7603 H         1 <0>         0.1118
     66 H28        -1.3007   -2.6606   12.5334 H         1 <0>         0.0869
     67 H29        -0.9613   -0.8618   14.9778 H         1 <0>         0.0815
     68 H30        -1.9317   -2.3533   14.8939 H         1 <0>         0.0937
     69 H31         0.3208   -2.7453   15.9141 H         1 <0>         0.1116
     70 H32         0.0913   -3.6719   14.4108 H         1 <0>         0.0868
     71 H33         2.3182   -2.5800   14.4528 H         1 <0>         0.1312
     72 H34         1.5364   -0.9936   14.6493 H         1 <0>         0.1279
     73 H35         1.1174   -2.8117   12.3853 H         1 <0>         0.4200
@<TRIPOS>BOND
     1    1    6 ar
     2    1    2 ar
     3    1   41 1
     4    2    3 ar
     5    2   42 1
     6    3    4 ar
     7    3   43 1
     8    4    5 ar
     9    4    7 1
    10    5    6 ar
    11    5   44 1
    12    6   45 1
    13    7    8 1
    14    7   46 1
    15    7   47 1
    16    8    9 1
    17    9   14 ar
    18    9   10 ar
    19   10   11 ar
    20   10   48 1
    21   11   12 ar
    22   11   49 1
    23   12   17 1
    24   12   13 ar
    25   13   14 ar
    26   13   15 1
    27   14   50 1
    28   15   16 2
    29   15   19 1
    30   16   17 1
    31   17   18 1
    32   19   28 2
    33   19   20 1
    34   20   21 1
    35   20   22 1
    36   22   27 ar
    37   22   23 ar
    38   23   24 ar
    39   23   51 1
    40   24   25 ar
    41   24   52 1
    42   25   26 ar
    43   25   29 1
    44   26   27 ar
    45   26   53 1
    46   27   28 1
    47   29   34 1
    48   29   30 1
    49   30   31 1
    50   30   54 1
    51   30   55 1
    52   31   32 1
    53   31   56 1
    54   31   57 1
    55   32   33 1
    56   32   35 1
    57   32   58 1
    58   33   34 1
    59   33   59 1
    60   33   60 1
    61   34   61 1
    62   34   62 1
    63   35   40 1
    64   35   36 1
    65   35   73 1
    66   36   37 1
    67   36   63 1
    68   36   64 1
    69   37   38 1
    70   37   65 1
    71   37   66 1
    72   38   39 1
    73   38   67 1
    74   38   68 1
    75   39   40 1
    76   39   69 1
    77   39   70 1
    78   40   71 1
    79   40   72 1
@<TRIPOS>MOLECULE
CHEMBL377346__1
   73    79     0     0     0
SMALL
USER_CHARGES

@<TRIPOS>ATOM
      1 C1         -0.0556    1.3078    0.0094 C.ar      1 <0>        -0.1081
      2 C2          1.1221    2.0316    0.0053 C.ar      1 <0>        -0.1232
      3 C3          2.3377    1.3737   -0.0097 C.ar      1 <0>        -0.0950
      4 C4          2.3757   -0.0081   -0.0202 C.ar      1 <0>        -0.0991
      5 C5          1.1980   -0.7320   -0.0152 C.ar      1 <0>        -0.0947
      6 C6         -0.0176   -0.0740   -0.0016 C.ar      1 <0>        -0.1229
      7 C7          3.7009   -0.7254   -0.0376 C.3       1 <0>         0.1016
      8 O1          4.1321   -0.9620    1.3041 O.3       1 <0>        -0.3045
      9 C8          5.3192   -1.6049    1.4667 C.ar      1 <0>         0.0984
     10 C9          6.0556   -1.9943    0.3495 C.ar      1 <0>        -0.1425
     11 C10         7.2497   -2.6408    0.4918 C.ar      1 <0>        -0.0985
     12 C11         7.7457   -2.9188    1.7635 C.ar      1 <0>         0.0959
     13 C12         7.0092   -2.5294    2.8961 C.ar      1 <0>        -0.1022
     14 C13         5.7916   -1.8635    2.7371 C.ar      1 <0>        -0.0705
     15 C14         7.7880   -2.9603    4.0634 C.2       1 <0>         0.1514
     16 N1          8.8763   -3.5456    3.6183 N.2       1 <0>        -0.2235
     17 N2          8.8834   -3.5381    2.2199 N.pl3     1 <0>        -0.4884
     18 H1          9.5819   -3.9119    1.6603 H         1 <0>         0.4473
     19 C15         7.4162   -2.7701    5.4791 C.2       1 <0>         0.3509
     20 N3          6.3200   -2.1863    5.8994 N.2       1 <0>        -0.4440
     21 C16         6.2967   -2.1821    7.2554 C.ar      1 <0>         0.0110
     22 C17         5.3820   -1.6986    8.1971 C.ar      1 <0>        -0.0058
     23 C18         5.6354   -1.8423    9.5307 C.ar      1 <0>        -0.1871
     24 C19         6.8014   -2.4687    9.9679 C.ar      1 <0>         0.2309
     25 C20         7.7200   -2.9540    9.0515 C.ar      1 <0>        -0.2003
     26 C21         7.4740   -2.8146    7.6933 C.ar      1 <0>         0.1067
     27 N4          8.1621   -3.1825    6.5529 N.pl3     1 <0>        -0.5874
     28 N5          7.0451   -2.6075   11.3376 N.pl3     1 <0>        -0.6325
     29 C22         8.2058   -3.3696   11.8179 C.3       1 <0>         0.1258
     30 C23         9.0126   -2.4876   12.7760 C.3       1 <0>        -0.1596
     31 C24         8.0936   -1.9750   13.8872 C.3       1 <0>         0.0276
     32 C25         6.9754   -1.1274   13.2764 C.3       1 <0>        -0.1595
     33 C26         6.1489   -1.9889   12.3239 C.3       1 <0>         0.1266
     34 N6          8.8713   -1.1558   14.8264 N.4       1 <0>        -0.3809
     35 C27         9.9480   -1.9677   15.4061 C.3       1 <0>        -0.0118
     36 C28        10.8104   -1.0980   16.3234 C.3       1 <0>        -0.1453
     37 C29         9.9381   -0.5279   17.4455 C.3       1 <0>        -0.1393
     38 C30         8.7760    0.2551   16.8276 C.3       1 <0>        -0.1453
     39 C31         7.9890   -0.6647   15.8917 C.3       1 <0>        -0.0117
     40 H2         -1.0053    1.8218    0.0257 H         1 <0>         0.1250
     41 H3          1.0924    3.1112    0.0135 H         1 <0>         0.1258
     42 H4          3.2578    1.9392   -0.0137 H         1 <0>         0.1242
     43 H5          1.2277   -1.8115   -0.0237 H         1 <0>         0.1244
     44 H6         -0.9377   -0.6395    0.0020 H         1 <0>         0.1260
     45 H7          3.5921   -1.6772   -0.5574 H         1 <0>         0.0722
     46 H8          4.4394   -0.1119   -0.5537 H         1 <0>         0.0720
     47 H9          5.6774   -1.7826   -0.6398 H         1 <0>         0.1402
     48 H10         7.8101   -2.9374   -0.3825 H         1 <0>         0.1358
     49 H11         5.2220   -1.5573    3.6021 H         1 <0>         0.1503
     50 H12         4.4757   -1.2113    7.8690 H         1 <0>         0.1385
     51 H13         4.9262   -1.4670   10.2537 H         1 <0>         0.1327
     52 H14         8.6227   -3.4389    9.3926 H         1 <0>         0.1243
     53 H15         7.8651   -4.2624   12.3424 H         1 <0>         0.0750
     54 H16         8.8302   -3.6564   10.9718 H         1 <0>         0.1029
     55 H17         9.8221   -3.0718   13.2138 H         1 <0>         0.0979
     56 H18         9.4285   -1.6417   12.2287 H         1 <0>         0.0918
     57 H19         7.6587   -2.8218   14.4183 H         1 <0>         0.1373
     58 H20         6.3348   -0.7435   14.0703 H         1 <0>         0.0994
     59 H21         7.4105   -0.2943   12.7243 H         1 <0>         0.0922
     60 H22         5.4166   -1.3649   11.8114 H         1 <0>         0.1061
     61 H23         5.6367   -2.7665   12.8905 H         1 <0>         0.0747
     62 H24         9.5155   -2.7855   15.9827 H         1 <0>         0.1282
     63 H25        10.5660   -2.3754   14.6062 H         1 <0>         0.1310
     64 H26        11.6081   -1.7031   16.7542 H         1 <0>         0.1118
     65 H27        11.2436   -0.2800   15.7478 H         1 <0>         0.0868
     66 H28         9.5459   -1.3438   18.0526 H         1 <0>         0.0817
     67 H29        10.5352    0.1375   18.0691 H         1 <0>         0.0941
     68 H30         8.1196    0.6172   17.6189 H         1 <0>         0.1122
     69 H31         9.1669    1.1012   16.2624 H         1 <0>         0.0869
     70 H32         7.1607   -0.1105   15.4502 H         1 <0>         0.1318
     71 H33         7.5983   -1.5103   16.4579 H         1 <0>         0.1282
     72 H34         9.2720   -0.3712   14.3346 H         1 <0>         0.4200
     73 H35         9.0147   -3.6438    6.5186 H         1 <0>         0.4283
@<TRIPOS>BOND
     1    1    6 ar
     2    1    2 ar
     3    1   40 1
     4    2    3 ar
     5    2   41 1
     6    3    4 ar
     7    3   42 1
     8    4    5 ar
     9    4    7 1
    10    5    6 ar
    11    5   43 1
    12    6   44 1
    13    7    8 1
    14    7   45 1
    15    7   46 1
    16    8    9 1
    17    9   14 ar
    18    9   10 ar
    19   10   11 ar
    20   10   47 1
    21   11   12 ar
    22   11   48 1
    23   12   17 1
    24   12   13 ar
    25   13   14 ar
    26   13   15 1
    27   14   49 1
    28   15   16 2
    29   15   19 1
    30   16   17 1
    31   17   18 1
    32   19   27 1
    33   19   20 2
    34   20   21 1
    35   21   26 ar
    36   21   22 ar
    37   22   23 ar
    38   22   50 1
    39   23   24 ar
    40   23   51 1
    41   24   25 ar
    42   24   28 1
    43   25   26 ar
    44   25   52 1
    45   26   27 1
    46   27   73 1
    47   28   33 1
    48   28   29 1
    49   29   30 1
    50   29   53 1
    51   29   54 1
    52   30   31 1
    53   30   55 1
    54   30   56 1
    55   31   32 1
    56   31   34 1
    57   31   57 1
    58   32   33 1
    59   32   58 1
    60   32   59 1
    61   33   60 1
    62   33   61 1
    63   34   39 1
    64   34   35 1
    65   34   72 1
    66   35   36 1
    67   35   62 1
    68   35   63 1
    69   36   37 1
    70   36   64 1
    71   36   65 1
    72   37   38 1
    73   37   66 1
    74   37   67 1
    75   38   39 1
    76   38   68 1
    77   38   69 1
    78   39   70 1
    79   39   71 1
@<TRIPOS>MOLECULE
CHEMBL191023
   81    83     0     0     0
SMALL
USER_CHARGES

@<TRIPOS>ATOM
      1 C1          0.1284    1.4492    0.2097 C.3       1 <0>        -0.1880
      2 C2          0.0190   -0.0668    0.0349 C.3       1 <0>        -0.0168
      3 N1          0.5762   -0.4508   -1.2689 N.4       1 <0>        -0.3865
      4 C3          2.0192   -0.1759   -1.2850 C.3       1 <0>        -0.0148
      5 C4          2.5730   -0.4396   -2.6866 C.3       1 <0>        -0.1884
      6 C5          0.3482   -1.8842   -1.4959 C.3       1 <0>        -0.0133
      7 C6         -1.1545   -2.1508   -1.6035 C.3       1 <0>        -0.1459
      8 C7         -1.3919   -3.6437   -1.8399 C.3       1 <0>        -0.1287
      9 C8         -2.8947   -3.9103   -1.9475 C.3       1 <0>         0.1285
     10 N2         -3.1220   -5.3397   -2.1738 N.pl3     1 <0>        -0.7275
     11 C9         -4.4179   -5.8251   -2.3053 C.ar      1 <0>         0.4046
     12 C10        -5.4787   -4.9444   -2.2253 C.ar      1 <0>        -0.2382
     13 C11        -6.7828   -5.4459   -2.3595 C.ar      1 <0>         0.2368
     14 C12        -6.9419   -6.8418   -2.5717 C.ar      1 <0>        -0.2358
     15 C13        -8.2374   -7.3709   -2.7090 C.ar      1 <0>         0.0270
     16 C14        -9.3086   -6.4970   -2.6301 C.ar      1 <0>        -0.1523
     17 C15        -9.0721   -5.1215   -2.4173 C.ar      1 <0>         0.4536
     18 N3         -7.8508   -4.6466   -2.2914 N.ar      1 <0>        -0.4833
     19 N4        -10.1508   -4.2509   -2.3393 N.am      1 <0>        -0.6655
     20 C16        -9.9415   -2.9350   -2.1365 C.2       1 <0>         0.6964
     21 O1         -8.8082   -2.5104   -2.0220 O.2       1 <0>        -0.5189
     22 N5        -10.9887   -2.0899   -2.0607 N.am      1 <0>        -0.7355
     23 C17       -10.7612   -0.6596   -1.8404 C.3       1 <0>         0.1877
     24 C18        -9.9134   -0.0961   -2.9826 C.3       1 <0>        -0.1649
     25 C19       -12.1055    0.0697   -1.7953 C.3       1 <0>        -0.1575
     26 C20       -10.0271   -0.4585   -0.5131 C.3       1 <0>        -0.1648
     27 C21       -10.6956   -7.0027   -2.7687 C.ar      1 <0>         0.0355
     28 C22       -11.6642   -6.6506   -1.8308 C.ar      1 <0>        -0.1995
     29 C23       -12.9591   -7.1249   -1.9633 C.ar      1 <0>         0.1782
     30 C24       -13.2919   -7.9498   -3.0278 C.ar      1 <0>        -0.2955
     31 C25       -12.3299   -8.3026   -3.9629 C.ar      1 <0>         0.1783
     32 C26       -11.0347   -7.8264   -3.8401 C.ar      1 <0>        -0.1736
     33 O2        -12.6599   -9.1114   -5.0041 O.3       1 <0>        -0.3099
     34 C27       -14.0148   -9.5604   -5.0727 C.3       1 <0>         0.0243
     35 O3        -13.9044   -6.7819   -1.0490 O.3       1 <0>        -0.3110
     36 C28       -15.2188   -7.3065   -1.2469 C.3       1 <0>         0.0242
     37 C29        -5.8018   -7.6548   -2.6380 C.ar      1 <0>         0.2232
     38 N6         -4.6062   -7.1265   -2.5105 N.ar      1 <0>        -0.5406
     39 H1          1.1790    1.7329    0.2727 H         1 <0>         0.0803
     40 H2         -0.3320    1.9475   -0.6434 H         1 <0>         0.0798
     41 H3         -0.3838    1.7474    1.1245 H         1 <0>         0.1062
     42 H4          0.5754   -0.5652    0.8288 H         1 <0>         0.1293
     43 H5         -1.0286   -0.3635    0.0840 H         1 <0>         0.1325
     44 H6          2.1936    0.8657   -1.0153 H         1 <0>         0.1320
     45 H7          2.5208   -0.8258   -0.5679 H         1 <0>         0.1289
     46 H8          3.6177   -0.1312   -2.7284 H         1 <0>         0.1060
     47 H9          2.4989   -1.5034   -2.9124 H         1 <0>         0.0804
     48 H10         1.9971    0.1280   -3.4175 H         1 <0>         0.0797
     49 H11         0.8383   -2.1880   -2.4209 H         1 <0>         0.1334
     50 H12         0.7596   -2.4539   -0.6626 H         1 <0>         0.1306
     51 H13        -1.6446   -1.8469   -0.6785 H         1 <0>         0.0914
     52 H14        -1.5658   -1.5811   -2.4368 H         1 <0>         0.0916
     53 H15        -0.9019   -3.9475   -2.7649 H         1 <0>         0.0829
     54 H16        -0.9806   -4.2134   -1.0066 H         1 <0>         0.0826
     55 H17        -3.3848   -3.6064   -1.0225 H         1 <0>         0.0680
     56 H18        -3.3060   -3.3406   -2.7808 H         1 <0>         0.0684
     57 H19        -2.3683   -5.9475   -2.2320 H         1 <0>         0.4061
     58 H20        -5.3082   -3.8905   -2.0624 H         1 <0>         0.1384
     59 H21        -8.3924   -8.4273   -2.8715 H         1 <0>         0.1533
     60 H22       -11.0551   -4.5897   -2.4306 H         1 <0>         0.4169
     61 H23       -11.8930   -2.4288   -2.1521 H         1 <0>         0.3961
     62 H24       -10.4363   -0.2394   -3.9281 H         1 <0>         0.0535
     63 H25        -9.7441    0.9681   -2.8186 H         1 <0>         0.0631
     64 H26        -8.9557   -0.6156   -3.0147 H         1 <0>         0.0793
     65 H27       -12.7095   -0.3318   -0.9816 H         1 <0>         0.0637
     66 H28       -11.9362    1.1339   -1.6313 H         1 <0>         0.0768
     67 H29       -12.6284   -0.0736   -2.7408 H         1 <0>         0.0633
     68 H30        -9.0694   -0.9780   -0.5452 H         1 <0>         0.0793
     69 H31        -9.8578    0.6057   -0.3491 H         1 <0>         0.0630
     70 H32       -10.6311   -0.8599    0.3006 H         1 <0>         0.0539
     71 H33       -11.4056   -6.0090   -1.0015 H         1 <0>         0.1344
     72 H34       -14.3020   -8.3184   -3.1285 H         1 <0>         0.1389
     73 H35       -10.2874   -8.0976   -4.5712 H         1 <0>         0.1379
     74 H36       -14.1429  -10.1964   -5.9486 H         1 <0>         0.1060
     75 H37       -14.2556  -10.1276   -4.1735 H         1 <0>         0.0580
     76 H38       -14.6794   -8.6998   -5.1482 H         1 <0>         0.0575
     77 H39       -15.8736   -6.9566   -0.4488 H         1 <0>         0.1057
     78 H40       -15.6045   -6.9673   -2.2083 H         1 <0>         0.0580
     79 H41       -15.1809   -8.3958   -1.2344 H         1 <0>         0.0582
     80 H42        -5.9067   -8.7177   -2.7985 H         1 <0>         0.1711
     81 H43         0.1244    0.0811   -1.9976 H         1 <0>         0.4223
@<TRIPOS>BOND
     1    1    2 1
     2    1   39 1
     3    1   40 1
     4    1   41 1
     5    2    3 1
     6    2   42 1
     7    2   43 1
     8    3    4 1
     9    3    6 1
    10    3   81 1
    11    4    5 1
    12    4   44 1
    13    4   45 1
    14    5   46 1
    15    5   47 1
    16    5   48 1
    17    6    7 1
    18    6   49 1
    19    6   50 1
    20    7    8 1
    21    7   51 1
    22    7   52 1
    23    8    9 1
    24    8   53 1
    25    8   54 1
    26    9   10 1
    27    9   55 1
    28    9   56 1
    29   10   11 1
    30   10   57 1
    31   11   38 ar
    32   11   12 ar
    33   12   13 ar
    34   12   58 1
    35   13   18 ar
    36   13   14 ar
    37   14   15 ar
    38   14   37 ar
    39   15   16 ar
    40   15   59 1
    41   16   17 ar
    42   16   27 1
    43   17   18 ar
    44   17   19 1
    45   19   20 am
    46   19   60 1
    47   20   21 2
    48   20   22 am
    49   22   23 1
    50   22   61 1
    51   23   24 1
    52   23   25 1
    53   23   26 1
    54   24   62 1
    55   24   63 1
    56   24   64 1
    57   25   65 1
    58   25   66 1
    59   25   67 1
    60   26   68 1
    61   26   69 1
    62   26   70 1
    63   27   32 ar
    64   27   28 ar
    65   28   29 ar
    66   28   71 1
    67   29   30 ar
    68   29   35 1
    69   30   31 ar
    70   30   72 1
    71   31   32 ar
    72   31   33 1
    73   32   73 1
    74   33   34 1
    75   34   74 1
    76   34   75 1
    77   34   76 1
    78   35   36 1
    79   36   77 1
    80   36   78 1
    81   36   79 1
    82   37   38 ar
    83   37   80 1
@<TRIPOS>MOLECULE
CHEMBL482968
   54    57     0     0     0
SMALL
USER_CHARGES

@<TRIPOS>ATOM
      1 C1          0.1956   -8.1849    0.9094 C.3       1 <0>        -0.0785
      2 C2          0.1293   -6.7057    0.6288 C.2       1 <0>         0.0885
      3 C3          0.1319   -5.6909    1.5895 C.2       1 <0>        -0.2739
      4 C4          0.0607   -4.4980    0.9369 C.2       1 <0>         0.3068
      5 N1          0.0151   -4.7636   -0.3942 N.pl3     1 <0>        -0.4950
      6 N2          0.0654   -6.1540   -0.5558 N.2       1 <0>        -0.2801
      7 H1         -0.0392   -4.1072   -1.1063 H         1 <0>         0.4357
      8 N3          0.0383   -3.2359    1.5267 N.pl3     1 <0>        -0.6259
      9 C5         -0.0499   -3.1163    2.9062 C.ar      1 <0>         0.4764
     10 C6         -0.1829   -1.8625    3.4985 C.ar      1 <0>        -0.3500
     11 C7         -0.2684   -1.7891    4.8868 C.ar      1 <0>         0.4670
     12 N4         -0.2207   -2.9110    5.5990 N.ar      1 <0>        -0.5905
     13 C8         -0.0933   -4.0907    5.0014 C.ar      1 <0>         0.4457
     14 N5         -0.0141   -4.1975    3.6794 N.ar      1 <0>        -0.5725
     15 C9         -0.0437   -5.3108    5.8245 C.2       1 <0>        -0.1368
     16 C10        -0.0261   -6.5180    5.2356 C.2       1 <0>        -0.0158
     17 C11        -0.0947   -7.7396    6.0570 C.ar      1 <0>        -0.0835
     18 C12        -0.1840   -7.6460    7.4485 C.ar      1 <0>        -0.1003
     19 C13        -0.2478   -8.7936    8.2106 C.ar      1 <0>        -0.1231
     20 C14        -0.2236  -10.0356    7.6008 C.ar      1 <0>        -0.1032
     21 C15        -0.1348  -10.1361    6.2234 C.ar      1 <0>        -0.1213
     22 C16        -0.0766   -8.9972    5.4478 C.ar      1 <0>        -0.0908
     23 N6         -0.4010   -0.5618    5.5181 N.pl3     1 <0>        -0.6188
     24 C17        -0.2758   -0.4454    6.9792 C.3       1 <0>         0.1037
     25 C18         0.7164    0.6792    7.2935 C.3       1 <0>        -0.0227
     26 N7          0.2862    1.9120    6.6219 N.4       1 <0>        -0.3852
     27 C19         0.3403    1.7332    5.1655 C.3       1 <0>        -0.0217
     28 C20        -0.6649    0.6617    4.7452 C.3       1 <0>         0.0996
     29 C21         1.1746    3.0152    7.0113 C.3       1 <0>        -0.0471
     30 H2         -0.8145   -8.5793    1.0198 H         1 <0>         0.0807
     31 H3          0.6944   -8.6897    0.0821 H         1 <0>         0.0762
     32 H4          0.7547   -8.3554    1.8294 H         1 <0>         0.0794
     33 H5          0.1811   -5.8284    2.6596 H         1 <0>         0.1832
     34 H6          0.0843   -2.4408    0.9729 H         1 <0>         0.4221
     35 H7         -0.2185   -0.9676    2.8949 H         1 <0>         0.1410
     36 H8         -0.0216   -5.2351    6.9016 H         1 <0>         0.1430
     37 H9          0.0384   -6.5933    4.1601 H         1 <0>         0.1401
     38 H10        -0.2026   -6.6774    7.9258 H         1 <0>         0.1261
     39 H11        -0.3164   -8.7229    9.2861 H         1 <0>         0.1262
     40 H12        -0.2738  -10.9309    8.2027 H         1 <0>         0.1261
     41 H13        -0.1161  -11.1088    5.7544 H         1 <0>         0.1287
     42 H14        -0.0122   -9.0771    4.3727 H         1 <0>         0.1300
     43 H15        -1.2475   -0.2082    7.4123 H         1 <0>         0.0911
     44 H16         0.0927   -1.3848    7.3912 H         1 <0>         0.1398
     45 H17         0.7492    0.8444    8.3704 H         1 <0>         0.1444
     46 H18         1.7080    0.3988    6.9383 H         1 <0>         0.1323
     47 H19         0.0960    2.6751    4.6743 H         1 <0>         0.1450
     48 H20         1.3433    1.4209    4.8747 H         1 <0>         0.1335
     49 H21        -0.5535    0.4539    3.6810 H         1 <0>         0.1288
     50 H22        -1.6766    1.0126    4.9489 H         1 <0>         0.0961
     51 H23         2.1975    2.7788    6.7180 H         1 <0>         0.1218
     52 H24         0.8564    3.9311    6.5134 H         1 <0>         0.1255
     53 H25         1.1293    3.1543    8.0915 H         1 <0>         0.1264
     54 H26        -0.6592    2.1315    6.8977 H         1 <0>         0.4258
@<TRIPOS>BOND
     1    1    2 1
     2    1   30 1
     3    1   31 1
     4    1   32 1
     5    2    3 1
     6    2    6 2
     7    3   33 1
     8    3    4 2
     9    4    8 1
    10    4    5 1
    11    5    7 1
    12    5    6 1
    13    8    9 1
    14    8   34 1
    15    9   14 ar
    16    9   10 ar
    17   10   11 ar
    18   10   35 1
    19   11   12 ar
    20   11   23 1
    21   12   13 ar
    22   13   14 ar
    23   13   15 1
    24   15   16 2
    25   15   36 1
    26   16   17 1
    27   16   37 1
    28   17   22 ar
    29   17   18 ar
    30   18   19 ar
    31   18   38 1
    32   19   20 ar
    33   19   39 1
    34   20   21 ar
    35   20   40 1
    36   21   22 ar
    37   21   41 1
    38   22   42 1
    39   23   28 1
    40   23   24 1
    41   24   25 1
    42   24   43 1
    43   24   44 1
    44   25   26 1
    45   25   45 1
    46   25   46 1
    47   26   27 1
    48   26   29 1
    49   26   54 1
    50   27   28 1
    51   27   47 1
    52   27   48 1
    53   28   49 1
    54   28   50 1
    55   29   51 1
    56   29   52 1
    57   29   53 1
@<TRIPOS>MOLECULE
CHEMBL482968__1
   55    58     0     0     0
SMALL
USER_CHARGES

@<TRIPOS>ATOM
      1 C1          0.7214   -0.2663   -2.4222 C.3       1 <0>        -0.0896
      2 C2          0.7310   -0.8132   -1.0180 C.2       1 <0>         0.1183
      3 C3          0.2120   -2.0476   -0.6184 C.2       1 <0>        -0.2385
      4 C4          0.4140   -2.1711    0.7225 C.2       1 <0>         0.2867
      5 N1          1.0419   -1.0437    1.1458 N.pl3     1 <0>        -0.5013
      6 N2          1.2317   -0.2152    0.0324 N.2       1 <0>        -0.2605
      7 H1          1.3135   -0.8484    2.0563 H         1 <0>         0.4322
      8 N3          0.0439   -3.2554    1.5154 N.pl3     1 <0>        -0.6090
      9 C5          0.1546   -3.1750    2.8961 C.ar      1 <0>         0.4957
     10 C6          0.1324   -1.9371    3.5347 C.ar      1 <0>        -0.3535
     11 C7          0.2461   -1.9033    4.9224 C.ar      1 <0>         0.5251
     12 N4          0.3713   -3.0463    5.5904 N.ar      1 <0>        -0.5525
     13 C8          0.3887   -4.2099    4.9493 C.ar      1 <0>         0.5207
     14 N5          0.2776   -4.2790    3.6270 N.ar      1 <0>        -0.5647
     15 C9          0.5296   -5.4543    5.7239 C.2       1 <0>        -0.2363
     16 C10         0.6385   -5.4039    7.0618 C.2       1 <0>         0.0998
     17 C11         0.7794   -6.6492    7.8370 C.ar      1 <0>        -0.1304
     18 C12         0.8059   -7.8841    7.1832 C.ar      1 <0>        -0.0787
     19 C13         0.9380   -9.0454    7.9153 C.ar      1 <0>        -0.1241
     20 C14         1.0442   -8.9899    9.2940 C.ar      1 <0>        -0.0698
     21 C15         1.0183   -7.7708    9.9483 C.ar      1 <0>        -0.1245
     22 C16         0.8930   -6.6008    9.2290 C.ar      1 <0>        -0.0687
     23 N6          0.2292   -0.6931    5.5989 N.pl3     1 <0>        -0.5876
     24 C17         0.5614   -0.6220    7.0302 C.3       1 <0>         0.0889
     25 C18         1.6111    0.4759    7.2312 C.3       1 <0>        -0.0237
     26 N7          1.1165    1.7352    6.6605 N.4       1 <0>        -0.3873
     27 C19         0.9612    1.5985    5.2068 C.3       1 <0>        -0.0238
     28 C20        -0.1153    0.5570    4.9042 C.3       1 <0>         0.0845
     29 C21         2.0737    2.8112    6.9499 C.3       1 <0>        -0.0496
     30 H2         -0.1921    0.3062   -2.5829 H         1 <0>         0.0915
     31 H3          1.5862    0.3815   -2.5657 H         1 <0>         0.0851
     32 H4          0.7632   -1.0911   -3.1336 H         1 <0>         0.0909
     33 H5         -0.2649   -2.7744   -1.2592 H         1 <0>         0.1692
     34 H6         -0.2912   -4.0664    1.1020 H         1 <0>         0.4507
     35 H7          0.0299   -1.0244    2.9665 H         1 <0>         0.1793
     36 H8          0.5453   -6.4075    5.2163 H         1 <0>         0.1645
     37 H9          0.6228   -4.4507    7.5694 H         1 <0>         0.1470
     38 H10         0.7228   -7.9289    6.1073 H         1 <0>         0.1294
     39 H11         0.9583  -10.0004    7.4115 H         1 <0>         0.1370
     40 H12         1.1475   -9.9026    9.8621 H         1 <0>         0.1375
     41 H13         1.1014   -7.7353   11.0245 H         1 <0>         0.1378
     42 H14         0.8778   -5.6498    9.7406 H         1 <0>         0.1330
     43 H15        -0.3345   -0.3813    7.6026 H         1 <0>         0.1122
     44 H16         0.9646   -1.5792    7.3607 H         1 <0>         0.1449
     45 H17         1.7987    0.6087    8.2967 H         1 <0>         0.1566
     46 H18         2.5368    0.1895    6.7320 H         1 <0>         0.1374
     47 H19         0.6699    2.5584    4.7805 H         1 <0>         0.1589
     48 H20         1.9066    1.2781    4.7689 H         1 <0>         0.1387
     49 H21        -0.1592    0.3788    3.8297 H         1 <0>         0.1301
     50 H22        -1.0806    0.9187    5.2582 H         1 <0>         0.1200
     51 H23         3.0399    2.5664    6.5087 H         1 <0>         0.1254
     52 H24         1.7077    3.7467    6.5267 H         1 <0>         0.1318
     53 H25         2.1839    2.9191    8.0289 H         1 <0>         0.1322
     54 H26         0.2900   -5.1446    3.1895 H         1 <0>         0.4509
     55 H27         0.2241    1.9623    7.0730 H         1 <0>         0.4301
@<TRIPOS>BOND
     1    1    2 1
     2    1   30 1
     3    1   31 1
     4    1   32 1
     5    2    3 1
     6    2    6 2
     7    3   33 1
     8    3    4 2
     9    4    8 1
    10    4    5 1
    11    5    7 1
    12    5    6 1
    13    8    9 1
    14    8   34 1
    15    9   14 ar
    16    9   10 ar
    17   10   11 ar
    18   10   35 1
    19   11   12 ar
    20   11   23 1
    21   12   13 ar
    22   13   14 ar
    23   13   15 1
    24   14   54 1
    25   15   16 2
    26   15   36 1
    27   16   17 1
    28   16   37 1
    29   17   22 ar
    30   17   18 ar
    31   18   19 ar
    32   18   38 1
    33   19   20 ar
    34   19   39 1
    35   20   21 ar
    36   20   40 1
    37   21   22 ar
    38   21   41 1
    39   22   42 1
    40   23   28 1
    41   23   24 1
    42   24   25 1
    43   24   43 1
    44   24   44 1
    45   25   26 1
    46   25   45 1
    47   25   46 1
    48   26   27 1
    49   26   29 1
    50   26   55 1
    51   27   28 1
    52   27   47 1
    53   27   48 1
    54   28   49 1
    55   28   50 1
    56   29   51 1
    57   29   52 1
    58   29   53 1
@<TRIPOS>MOLECULE
CHEMBL482968__2
   55    58     0     0     0
SMALL
USER_CHARGES

@<TRIPOS>ATOM
      1 C1          0.1954   -6.9368    1.8908 C.3       1 <0>        -0.1105
      2 C2          0.1588   -6.1785    0.5890 C.2       1 <0>         0.1553
      3 C3          0.1152   -4.8338    0.4518 C.2       1 <0>        -0.2711
      4 C4          0.0931   -4.5414   -0.9216 C.2       1 <0>         0.2850
      5 N1          0.1227   -5.6765   -1.5795 N.2       1 <0>        -0.3665
      6 N2          0.1698   -6.7206   -0.6470 N.pl3     1 <0>        -0.4343
      7 H1          0.2028   -7.6678   -0.8534 H         1 <0>         0.4564
      8 N3          0.0470   -3.2619   -1.4898 N.pl3     1 <0>        -0.5893
      9 C5          0.1391   -3.1103   -2.8655 C.ar      1 <0>         0.5016
     10 C6          0.2300   -1.8402   -3.4307 C.ar      1 <0>        -0.3302
     11 C7          0.3207   -1.7346   -4.8165 C.ar      1 <0>         0.5143
     12 N4          0.3176   -2.8422   -5.5523 N.ar      1 <0>        -0.5565
     13 C8          0.2295   -4.0381   -4.9803 C.ar      1 <0>         0.5113
     14 N5          0.1472   -4.1756   -3.6613 N.ar      1 <0>        -0.5571
     15 C9          0.2287   -5.2416   -5.8289 C.2       1 <0>        -0.2261
     16 C10         0.3164   -5.1220   -7.1640 C.2       1 <0>         0.0861
     17 C11         0.3156   -6.3263   -8.0133 C.ar      1 <0>        -0.1243
     18 C12         0.2180   -7.5942   -7.4336 C.ar      1 <0>        -0.0821
     19 C13         0.2174   -8.7167   -8.2349 C.ar      1 <0>        -0.1237
     20 C14         0.3136   -8.5899   -9.6095 C.ar      1 <0>        -0.0747
     21 C15         0.4106   -7.3377  -10.1906 C.ar      1 <0>        -0.1239
     22 C16         0.4066   -6.2058   -9.4026 C.ar      1 <0>        -0.0718
     23 N6          0.4125   -0.4903   -5.4212 N.pl3     1 <0>        -0.5934
     24 C17         0.2872   -0.3472   -6.8800 C.3       1 <0>         0.0911
     25 C18        -0.7424    0.7488   -7.1738 C.3       1 <0>        -0.0231
     26 N7         -0.3570    1.9813   -6.4748 N.4       1 <0>        -0.3876
     27 C19        -0.4088    1.7697   -5.0227 C.3       1 <0>        -0.0230
     28 C20         0.6317    0.7249   -4.6217 C.3       1 <0>         0.0880
     29 C21        -1.2821    3.0611   -6.8438 C.3       1 <0>        -0.0489
     30 H2          1.2312   -7.0828    2.1972 H         1 <0>         0.0996
     31 H3         -0.3336   -6.3695    2.6566 H         1 <0>         0.1025
     32 H4         -0.2850   -7.9064    1.7601 H         1 <0>         0.0872
     33 H5          0.0994   -4.1128    1.2557 H         1 <0>         0.1697
     34 H6         -0.0493   -2.4819   -0.9212 H         1 <0>         0.4584
     35 H7          0.2299   -0.9575   -2.8084 H         1 <0>         0.1820
     36 H8          0.1577   -6.2203   -5.3779 H         1 <0>         0.1600
     37 H9          0.3874   -4.1433   -7.6150 H         1 <0>         0.1467
     38 H10         0.1435   -7.6947   -6.3609 H         1 <0>         0.1281
     39 H11         0.1420   -9.6972   -7.7884 H         1 <0>         0.1353
     40 H12         0.3134   -9.4725  -10.2319 H         1 <0>         0.1361
     41 H13         0.4857   -7.2464  -11.2641 H         1 <0>         0.1366
     42 H14         0.4779   -5.2290   -9.8578 H         1 <0>         0.1325
     43 H15         1.2513   -0.0674   -7.3046 H         1 <0>         0.1086
     44 H16        -0.0474   -1.2898   -7.3131 H         1 <0>         0.1430
     45 H17        -0.7780    0.9357   -8.2471 H         1 <0>         0.1539
     46 H18        -1.7247    0.4269   -6.8281 H         1 <0>         0.1365
     47 H19        -0.1986    2.7088   -4.5109 H         1 <0>         0.1554
     48 H20        -1.4012    1.4168   -4.7420 H         1 <0>         0.1380
     49 H21         0.5247    0.4908   -3.5625 H         1 <0>         0.1356
     50 H22         1.6312    1.1148   -4.8145 H         1 <0>         0.1144
     51 H23        -2.2969    2.7833   -6.5591 H         1 <0>         0.1246
     52 H24        -0.9970    3.9767   -6.3255 H         1 <0>         0.1306
     53 H25        -1.2386    3.2246   -7.9206 H         1 <0>         0.1308
     54 H26         0.0886   -5.0632   -3.2745 H         1 <0>         0.4537
     55 H27         0.5810    2.2391   -6.7426 H         1 <0>         0.4293
@<TRIPOS>BOND
     1    1    2 1
     2    1   30 1
     3    1   31 1
     4    1   32 1
     5    2    6 1
     6    2    3 2
     7    3    4 1
     8    3   33 1
     9    4    5 2
    10    4    8 1
    11    5    6 1
    12    6    7 1
    13    8    9 1
    14    8   34 1
    15    9   14 ar
    16    9   10 ar
    17   10   11 ar
    18   10   35 1
    19   11   12 ar
    20   11   23 1
    21   12   13 ar
    22   13   14 ar
    23   13   15 1
    24   14   54 1
    25   15   16 2
    26   15   36 1
    27   16   17 1
    28   16   37 1
    29   17   22 ar
    30   17   18 ar
    31   18   19 ar
    32   18   38 1
    33   19   20 ar
    34   19   39 1
    35   20   21 ar
    36   20   40 1
    37   21   22 ar
    38   21   41 1
    39   22   42 1
    40   23   28 1
    41   23   24 1
    42   24   25 1
    43   24   43 1
    44   24   44 1
    45   25   26 1
    46   25   45 1
    47   25   46 1
    48   26   27 1
    49   26   29 1
    50   26   55 1
    51   27   28 1
    52   27   47 1
    53   27   48 1
    54   28   49 1
    55   28   50 1
    56   29   51 1
    57   29   52 1
    58   29   53 1
@<TRIPOS>MOLECULE
CHEMBL482968__3
   54    57     0     0     0
SMALL
USER_CHARGES

@<TRIPOS>ATOM
      1 C1          0.5340   -8.1342   -0.9011 C.3       1 <0>        -0.0985
      2 C2          0.2818   -6.6696   -0.6515 C.2       1 <0>         0.0986
      3 C3          0.3099   -5.6872   -1.5806 C.2       1 <0>        -0.2709
      4 C4          0.0214   -4.4745   -0.9340 C.2       1 <0>         0.3045
      5 N1         -0.1720   -4.7284    0.3389 N.2       1 <0>        -0.3234
      6 N2         -0.0180   -6.1063    0.5378 N.pl3     1 <0>        -0.4646
      7 H1         -0.1092   -6.5738    1.3828 H         1 <0>         0.4427
      8 N3         -0.0474   -3.2142   -1.5414 N.pl3     1 <0>        -0.6097
      9 C5          0.0540   -3.1024   -2.9203 C.ar      1 <0>         0.4788
     10 C6          0.0679   -1.8485   -3.5273 C.ar      1 <0>        -0.3501
     11 C7          0.1711   -1.7830   -4.9147 C.ar      1 <0>         0.4660
     12 N4          0.2526   -2.9122   -5.6124 N.ar      1 <0>        -0.5923
     13 C8          0.2365   -4.0917   -5.0011 C.ar      1 <0>         0.4419
     14 N5          0.1447   -4.1905   -3.6792 N.ar      1 <0>        -0.5746
     15 C9          0.3283   -5.3199   -5.8082 C.2       1 <0>        -0.1311
     16 C10         0.3390   -6.5204   -5.2056 C.2       1 <0>        -0.0221
     17 C11         0.4985   -7.7462   -6.0078 C.ar      1 <0>        -0.0811
     18 C12         0.6448   -7.6633   -7.3952 C.ar      1 <0>        -0.1011
     19 C13         0.7942   -8.8147   -8.1394 C.ar      1 <0>        -0.1220
     20 C14         0.7989  -10.0500   -7.5157 C.ar      1 <0>        -0.1045
     21 C15         0.6545  -10.1400   -6.1423 C.ar      1 <0>        -0.1213
     22 C16         0.5101   -8.9968   -5.3844 C.ar      1 <0>        -0.0930
     23 N6          0.1882   -0.5562   -5.5602 N.pl3     1 <0>        -0.6197
     24 C17         0.0240   -0.4669   -7.0194 C.3       1 <0>         0.1048
     25 C18        -1.0646    0.5677   -7.3233 C.3       1 <0>        -0.0229
     26 N7         -0.7252    1.8395   -6.6727 N.4       1 <0>        -0.3851
     27 C19        -0.7346    1.6731   -5.2138 C.3       1 <0>        -0.0219
     28 C20         0.3648    0.6937   -4.8047 C.3       1 <0>         0.1000
     29 C21        -1.7102    2.8605   -7.0536 C.3       1 <0>        -0.0470
     30 H2         -0.4062   -8.6282   -1.1466 H         1 <0>         0.0850
     31 H3          1.2310   -8.2465   -1.7316 H         1 <0>         0.0889
     32 H4          0.9596   -8.5874   -0.0058 H         1 <0>         0.0753
     33 H5          0.5180   -5.8130   -2.6328 H         1 <0>         0.1798
     34 H6         -0.1659   -2.4197   -0.9978 H         1 <0>         0.4263
     35 H7         -0.0001   -0.9477   -2.9354 H         1 <0>         0.1412
     36 H8          0.3871   -5.2555   -6.8847 H         1 <0>         0.1423
     37 H9          0.2306   -6.5872   -4.1331 H         1 <0>         0.1396
     38 H10         0.6406   -6.6999   -7.8834 H         1 <0>         0.1265
     39 H11         0.9073   -8.7523   -9.2116 H         1 <0>         0.1263
     40 H12         0.9155  -10.9484   -8.1037 H         1 <0>         0.1259
     41 H13         0.6588  -11.1075   -5.6625 H         1 <0>         0.1279
     42 H14         0.4020   -9.0683   -4.3122 H         1 <0>         0.1280
     43 H15         0.9636   -0.1546   -7.4753 H         1 <0>         0.0904
     44 H16        -0.2732   -1.4382   -7.4147 H         1 <0>         0.1384
     45 H17        -1.1329    0.7175   -8.4008 H         1 <0>         0.1438
     46 H18        -2.0220    0.2098   -6.9446 H         1 <0>         0.1321
     47 H19        -0.5598    2.6375   -4.7369 H         1 <0>         0.1449
     48 H20        -1.7020    1.2818   -4.8989 H         1 <0>         0.1336
     49 H21         0.2927    0.4893   -3.7365 H         1 <0>         0.1296
     50 H22         1.3393    1.1252   -5.0331 H         1 <0>         0.0956
     51 H23        -2.7036    2.5432   -6.7366 H         1 <0>         0.1216
     52 H24        -1.4593    3.8053   -6.5713 H         1 <0>         0.1254
     53 H25        -1.6986    2.9908   -8.1358 H         1 <0>         0.1260
     54 H26         0.1929    2.1337   -6.9705 H         1 <0>         0.4256
@<TRIPOS>BOND
     1    1    2 1
     2    1   30 1
     3    1   31 1
     4    1   32 1
     5    2    6 1
     6    2    3 2
     7    3    4 1
     8    3   33 1
     9    4    5 2
    10    4    8 1
    11    5    6 1
    12    6    7 1
    13    8    9 1
    14    8   34 1
    15    9   14 ar
    16    9   10 ar
    17   10   11 ar
    18   10   35 1
    19   11   12 ar
    20   11   23 1
    21   12   13 ar
    22   13   14 ar
    23   13   15 1
    24   15   16 2
    25   15   36 1
    26   16   17 1
    27   16   37 1
    28   17   22 ar
    29   17   18 ar
    30   18   19 ar
    31   18   38 1
    32   19   20 ar
    33   19   39 1
    34   20   21 ar
    35   20   40 1
    36   21   22 ar
    37   21   41 1
    38   22   42 1
    39   23   28 1
    40   23   24 1
    41   24   25 1
    42   24   43 1
    43   24   44 1
    44   25   26 1
    45   25   45 1
    46   25   46 1
    47   26   27 1
    48   26   29 1
    49   26   54 1
    50   27   28 1
    51   27   47 1
    52   27   48 1
    53   28   49 1
    54   28   50 1
    55   29   51 1
    56   29   52 1
    57   29   53 1
@<TRIPOS>MOLECULE
CHEMBL189691
   87    90     0     0     0
SMALL
USER_CHARGES

@<TRIPOS>ATOM
      1 C1         -0.0187    1.5258    0.0104 C.3       1 <0>        -0.1650
      2 C2          0.0021   -0.0041    0.0020 C.3       1 <0>         0.1878
      3 C3          0.7421   -0.5109    1.2415 C.3       1 <0>        -0.1650
      4 C4         -1.4333   -0.5336    0.0129 C.3       1 <0>        -0.1571
      5 N1          0.6878   -0.4765   -1.2033 N.am      1 <0>        -0.7357
      6 C5          1.9715   -0.1323   -1.4270 C.2       1 <0>         0.6957
      7 O1          2.5604    0.5703   -0.6286 O.2       1 <0>        -0.5177
      8 N2          2.6023   -0.5669   -2.5359 N.am      1 <0>        -0.6657
      9 C6          3.9247   -0.2123   -2.7663 C.ar      1 <0>         0.4529
     10 C7          4.5693   -0.6712   -3.9356 C.ar      1 <0>        -0.1541
     11 C8          5.8881   -0.3212   -4.1717 C.ar      1 <0>         0.0273
     12 C9          6.5368    0.4880   -3.2221 C.ar      1 <0>        -0.2369
     13 C10         7.8708    0.8895   -3.3824 C.ar      1 <0>         0.2222
     14 N3          8.4455    1.6459   -2.4759 N.ar      1 <0>        -0.5409
     15 C11         7.8088    2.0618   -1.3834 C.ar      1 <0>         0.4051
     16 C12         6.4944    1.7182   -1.1375 C.ar      1 <0>        -0.2387
     17 C13         5.8226    0.9111   -2.0693 C.ar      1 <0>         0.2373
     18 N4          4.5491    0.5491   -1.8926 N.ar      1 <0>        -0.4828
     19 N5          8.4837    2.8609   -0.4679 N.pl3     1 <0>        -0.7265
     20 C14         7.7998    3.3283    0.7404 C.3       1 <0>         0.1268
     21 C15         8.7592    4.1828    1.5712 C.3       1 <0>        -0.1313
     22 C16         8.0449    4.6711    2.8331 C.3       1 <0>        -0.1144
     23 C17         9.0043    5.5256    3.6639 C.3       1 <0>        -0.1480
     24 C18         8.2901    6.0138    4.9258 C.3       1 <0>        -0.0096
     25 N6          9.2112    6.8342    5.7235 N.4       1 <0>        -0.3869
     26 C19        10.3211    5.9993    6.2016 C.3       1 <0>        -0.0065
     27 C20        11.2909    6.8576    7.0169 C.3       1 <0>         0.0246
     28 N7         10.5763    7.4518    8.1555 N.3       1 <0>        -0.5439
     29 C21         9.4468    8.2706    7.6931 C.3       1 <0>         0.0240
     30 C22         8.4923    7.4007    6.8723 C.3       1 <0>        -0.0022
     31 C23        11.4879    8.2391    8.9963 C.3       1 <0>         0.0193
     32 C24         3.8387   -1.5231   -4.9046 C.ar      1 <0>         0.0368
     33 C25         3.1397   -2.6438   -4.4607 C.ar      1 <0>        -0.1995
     34 C26         2.4582   -3.4378   -5.3688 C.ar      1 <0>         0.1781
     35 C27         2.4715   -3.1183   -6.7187 C.ar      1 <0>        -0.2960
     36 C28         3.1664   -2.0032   -7.1640 C.ar      1 <0>         0.1781
     37 C29         3.8449   -1.2016   -6.2604 C.ar      1 <0>        -0.1738
     38 O2          3.1769   -1.6937   -8.4872 O.3       1 <0>        -0.3100
     39 C30         2.4514   -2.5601   -9.3619 C.3       1 <0>         0.0245
     40 O3          1.7762   -4.5310   -4.9368 O.3       1 <0>        -0.3110
     41 C31         1.0960   -5.3046   -5.9272 C.3       1 <0>         0.0244
     42 H1          1.0039    1.9031    0.0027 H         1 <0>         0.0797
     43 H2         -0.5459    1.8868   -0.8726 H         1 <0>         0.0532
     44 H3         -0.5289    1.8773    0.9072 H         1 <0>         0.0631
     45 H4          0.2319   -0.1594    2.1383 H         1 <0>         0.0630
     46 H5          0.7568   -1.6008    1.2356 H         1 <0>         0.0536
     47 H6          1.7647   -0.1336    1.2338 H         1 <0>         0.0798
     48 H7         -1.9605   -0.1726   -0.8702 H         1 <0>         0.0630
     49 H8         -1.4185   -1.6235    0.0069 H         1 <0>         0.0635
     50 H9         -1.9435   -0.1821    0.9097 H         1 <0>         0.0766
     51 H10         0.2179   -1.0371   -1.8404 H         1 <0>         0.3957
     52 H11         2.1325   -1.1275   -3.1729 H         1 <0>         0.4165
     53 H12         6.4032   -0.6599   -5.0584 H         1 <0>         0.1526
     54 H13         8.4269    0.5757   -4.2534 H         1 <0>         0.1704
     55 H14         5.9925    2.0642   -0.2459 H         1 <0>         0.1393
     56 H15         9.4075    3.1089   -0.6290 H         1 <0>         0.4050
     57 H16         6.9323    3.9254    0.4590 H         1 <0>         0.0669
     58 H17         7.4748    2.4704    1.3290 H         1 <0>         0.0670
     59 H18         9.6266    3.5858    1.8527 H         1 <0>         0.0748
     60 H19         9.0841    5.0408    0.9827 H         1 <0>         0.0748
     61 H20         7.1775    5.2681    2.5517 H         1 <0>         0.0794
     62 H21         7.7200    3.8131    3.4217 H         1 <0>         0.0795
     63 H22         9.8718    4.9285    3.9454 H         1 <0>         0.0879
     64 H23         9.3293    6.3835    3.0754 H         1 <0>         0.0873
     65 H24         7.4226    6.6108    4.6444 H         1 <0>         0.1324
     66 H25         7.9651    5.1558    5.5144 H         1 <0>         0.1320
     67 H26         9.9294    5.1985    6.8287 H         1 <0>         0.1380
     68 H27        10.8458    5.5691    5.3485 H         1 <0>         0.1366
     69 H28        12.1068    6.2352    7.3843 H         1 <0>         0.1235
     70 H29        11.6932    7.6504    6.3863 H         1 <0>         0.0601
     71 H30         8.9173    8.6791    8.5539 H         1 <0>         0.1239
     72 H31         9.8188    9.0867    7.0737 H         1 <0>         0.0602
     73 H32         7.6610    8.0094    6.5164 H         1 <0>         0.1361
     74 H33         8.1099    6.5927    7.4960 H         1 <0>         0.1379
     75 H34        11.9281    9.0407    8.4032 H         1 <0>         0.0395
     76 H35        10.9334    8.6674    9.8313 H         1 <0>         0.0840
     77 H36        12.2786    7.5934    9.3784 H         1 <0>         0.0845
     78 H37         3.1296   -2.8935   -3.4101 H         1 <0>         0.1344
     79 H38         1.9400   -3.7392   -7.4246 H         1 <0>         0.1385
     80 H39         4.3820   -0.3311   -6.6071 H         1 <0>         0.1378
     81 H40         2.8585   -3.5690   -9.2938 H         1 <0>         0.0578
     82 H41         1.4007   -2.5720   -9.0723 H         1 <0>         0.0573
     83 H42         2.5417   -2.2003  -10.3868 H         1 <0>         0.1057
     84 H43         0.3590   -4.6805   -6.4327 H         1 <0>         0.0578
     85 H44         1.8166   -5.6777   -6.6549 H         1 <0>         0.0580
     86 H45         0.5935   -6.1456   -5.4494 H         1 <0>         0.1055
     87 H46         9.5753    7.5823    5.1527 H         1 <0>         0.4201
@<TRIPOS>BOND
     1    1    2 1
     2    1   42 1
     3    1   43 1
     4    1   44 1
     5    2    3 1
     6    2    4 1
     7    2    5 1
     8    3   45 1
     9    3   46 1
    10    3   47 1
    11    4   48 1
    12    4   49 1
    13    4   50 1
    14    5    6 am
    15    5   51 1
    16    6    7 2
    17    6    8 am
    18    8    9 1
    19    8   52 1
    20    9   18 ar
    21    9   10 ar
    22   10   11 ar
    23   10   32 1
    24   11   12 ar
    25   11   53 1
    26   12   17 ar
    27   12   13 ar
    28   13   14 ar
    29   13   54 1
    30   14   15 ar
    31   15   16 ar
    32   15   19 1
    33   16   17 ar
    34   16   55 1
    35   17   18 ar
    36   19   20 1
    37   19   56 1
    38   20   21 1
    39   20   57 1
    40   20   58 1
    41   21   22 1
    42   21   59 1
    43   21   60 1
    44   22   23 1
    45   22   61 1
    46   22   62 1
    47   23   24 1
    48   23   63 1
    49   23   64 1
    50   24   25 1
    51   24   65 1
    52   24   66 1
    53   25   30 1
    54   25   26 1
    55   25   87 1
    56   26   27 1
    57   26   67 1
    58   26   68 1
    59   27   28 1
    60   27   69 1
    61   27   70 1
    62   28   29 1
    63   28   31 1
    64   29   30 1
    65   29   71 1
    66   29   72 1
    67   30   73 1
    68   30   74 1
    69   31   75 1
    70   31   76 1
    71   31   77 1
    72   32   37 ar
    73   32   33 ar
    74   33   34 ar
    75   33   78 1
    76   34   35 ar
    77   34   40 1
    78   35   36 ar
    79   35   79 1
    80   36   37 ar
    81   36   38 1
    82   37   80 1
    83   38   39 1
    84   39   81 1
    85   39   82 1
    86   39   83 1
    87   40   41 1
    88   41   84 1
    89   41   85 1
    90   41   86 1
@<TRIPOS>MOLECULE
CHEMBL189691__1
   87    90     0     0     0
SMALL
USER_CHARGES

@<TRIPOS>ATOM
      1 C1         -0.0187    1.5258    0.0104 C.3       1 <0>        -0.1652
      2 C2          0.0021   -0.0041    0.0020 C.3       1 <0>         0.1879
      3 C3          0.7421   -0.5109    1.2415 C.3       1 <0>        -0.1650
      4 C4         -1.4333   -0.5336    0.0129 C.3       1 <0>        -0.1567
      5 N1          0.6878   -0.4765   -1.2033 N.am      1 <0>        -0.7361
      6 C5          1.9715   -0.1323   -1.4270 C.2       1 <0>         0.6950
      7 O1          2.5604    0.5703   -0.6286 O.2       1 <0>        -0.5165
      8 N2          2.6023   -0.5669   -2.5359 N.am      1 <0>        -0.6659
      9 C6          3.9247   -0.2123   -2.7663 C.ar      1 <0>         0.4518
     10 C7          4.5693   -0.6712   -3.9356 C.ar      1 <0>        -0.1565
     11 C8          5.8881   -0.3212   -4.1717 C.ar      1 <0>         0.0279
     12 C9          6.5368    0.4880   -3.2221 C.ar      1 <0>        -0.2382
     13 C10         7.8708    0.8895   -3.3824 C.ar      1 <0>         0.2212
     14 N3          8.4455    1.6459   -2.4759 N.ar      1 <0>        -0.5407
     15 C11         7.8088    2.0618   -1.3834 C.ar      1 <0>         0.4066
     16 C12         6.4944    1.7182   -1.1375 C.ar      1 <0>        -0.2397
     17 C13         5.8226    0.9111   -2.0693 C.ar      1 <0>         0.2377
     18 N4          4.5491    0.5491   -1.8926 N.ar      1 <0>        -0.4824
     19 N5          8.4837    2.8609   -0.4679 N.pl3     1 <0>        -0.7245
     20 C14         7.7998    3.3283    0.7404 C.3       1 <0>         0.1261
     21 C15         8.7592    4.1828    1.5712 C.3       1 <0>        -0.1288
     22 C16         8.0449    4.6711    2.8331 C.3       1 <0>        -0.1174
     23 C17         9.0043    5.5256    3.6639 C.3       1 <0>        -0.1164
     24 C18         8.2901    6.0138    4.9258 C.3       1 <0>         0.0533
     25 N6          9.2112    6.8342    5.7235 N.3       1 <0>        -0.5401
     26 C19        10.3198    6.0236    6.2471 C.3       1 <0>         0.0203
     27 C20        11.2857    6.9243    7.0200 C.3       1 <0>        -0.0027
     28 N7         10.5697    7.5769    8.1240 N.4       1 <0>        -0.3884
     29 C21         9.4811    8.4021    7.5840 C.3       1 <0>        -0.0024
     30 C22         8.5002    7.5137    6.8157 C.3       1 <0>         0.0245
     31 C23        11.5014    8.4274    8.8767 C.3       1 <0>        -0.0458
     32 C24         3.8387   -1.5231   -4.9046 C.ar      1 <0>         0.0385
     33 C25         3.1397   -2.6438   -4.4607 C.ar      1 <0>        -0.1995
     34 C26         2.4582   -3.4378   -5.3688 C.ar      1 <0>         0.1776
     35 C27         2.4715   -3.1183   -6.7187 C.ar      1 <0>        -0.2966
     36 C28         3.1664   -2.0032   -7.1640 C.ar      1 <0>         0.1777
     37 C29         3.8449   -1.2016   -6.2604 C.ar      1 <0>        -0.1739
     38 O2          3.1769   -1.6937   -8.4872 O.3       1 <0>        -0.3101
     39 C30         2.4514   -2.5601   -9.3619 C.3       1 <0>         0.0247
     40 O3          1.7762   -4.5310   -4.9368 O.3       1 <0>        -0.3111
     41 C31         1.0960   -5.3046   -5.9272 C.3       1 <0>         0.0245
     42 H1          1.0039    1.9031    0.0027 H         1 <0>         0.0803
     43 H2         -0.5459    1.8868   -0.8726 H         1 <0>         0.0531
     44 H3         -0.5289    1.8773    0.9072 H         1 <0>         0.0629
     45 H4          0.2319   -0.1594    2.1383 H         1 <0>         0.0627
     46 H5          0.7568   -1.6008    1.2356 H         1 <0>         0.0533
     47 H6          1.7647   -0.1336    1.2338 H         1 <0>         0.0802
     48 H7         -1.9605   -0.1726   -0.8702 H         1 <0>         0.0629
     49 H8         -1.4185   -1.6235    0.0069 H         1 <0>         0.0631
     50 H9         -1.9435   -0.1821    0.9097 H         1 <0>         0.0763
     51 H10         0.2179   -1.0371   -1.8404 H         1 <0>         0.3953
     52 H11         2.1325   -1.1275   -3.1729 H         1 <0>         0.4160
     53 H12         6.4032   -0.6599   -5.0584 H         1 <0>         0.1520
     54 H13         8.4269    0.5757   -4.2534 H         1 <0>         0.1697
     55 H14         5.9925    2.0642   -0.2459 H         1 <0>         0.1399
     56 H15         9.4075    3.1089   -0.6290 H         1 <0>         0.4049
     57 H16         6.9323    3.9254    0.4590 H         1 <0>         0.0664
     58 H17         7.4748    2.4704    1.3290 H         1 <0>         0.0654
     59 H18         9.6266    3.5858    1.8527 H         1 <0>         0.0703
     60 H19         9.0841    5.0408    0.9827 H         1 <0>         0.0726
     61 H20         7.1775    5.2681    2.5517 H         1 <0>         0.0714
     62 H21         7.7200    3.8131    3.4217 H         1 <0>         0.0678
     63 H22         9.8718    4.9285    3.9454 H         1 <0>         0.0635
     64 H23         9.3293    6.3835    3.0754 H         1 <0>         0.0771
     65 H24         7.4226    6.6108    4.6444 H         1 <0>         0.0897
     66 H25         7.9651    5.1558    5.5144 H         1 <0>         0.0476
     67 H26         9.9260    5.2561    6.9134 H         1 <0>         0.0604
     68 H27        10.8474    5.5507    5.4187 H         1 <0>         0.1254
     69 H28        12.1013    6.3226    7.4212 H         1 <0>         0.1354
     70 H29        11.6897    7.6832    6.3500 H         1 <0>         0.1374
     71 H30         8.9588    8.8960    8.4033 H         1 <0>         0.1356
     72 H31         9.8944    9.1535    6.9111 H         1 <0>         0.1375
     73 H32         7.7003    8.1279    6.4023 H         1 <0>         0.1236
     74 H33         8.0765    6.7707    7.4915 H         1 <0>         0.0603
     75 H34        11.9167    9.1865    8.2139 H         1 <0>         0.1231
     76 H35        10.9702    8.9118    9.6960 H         1 <0>         0.1242
     77 H36        12.3085    7.8150    9.2787 H         1 <0>         0.1242
     78 H37         3.1296   -2.8935   -3.4101 H         1 <0>         0.1344
     79 H38         1.9400   -3.7392   -7.4246 H         1 <0>         0.1382
     80 H39         4.3820   -0.3311   -6.6071 H         1 <0>         0.1379
     81 H40         2.5417   -2.2003  -10.3868 H         1 <0>         0.1055
     82 H41         2.8585   -3.5690   -9.2938 H         1 <0>         0.0576
     83 H42         1.4007   -2.5720   -9.0723 H         1 <0>         0.0571
     84 H43         0.3590   -4.6805   -6.4327 H         1 <0>         0.0576
     85 H44         1.8166   -5.6777   -6.6549 H         1 <0>         0.0578
     86 H45         0.5935   -6.1456   -5.4494 H         1 <0>         0.1052
     87 H46        10.1858    6.8740    8.7378 H         1 <0>         0.4223
@<TRIPOS>BOND
     1    1    2 1
     2    1   42 1
     3    1   43 1
     4    1   44 1
     5    2    3 1
     6    2    4 1
     7    2    5 1
     8    3   45 1
     9    3   46 1
    10    3   47 1
    11    4   48 1
    12    4   49 1
    13    4   50 1
    14    5    6 am
    15    5   51 1
    16    6    7 2
    17    6    8 am
    18    8    9 1
    19    8   52 1
    20    9   18 ar
    21    9   10 ar
    22   10   11 ar
    23   10   32 1
    24   11   12 ar
    25   11   53 1
    26   12   17 ar
    27   12   13 ar
    28   13   14 ar
    29   13   54 1
    30   14   15 ar
    31   15   16 ar
    32   15   19 1
    33   16   17 ar
    34   16   55 1
    35   17   18 ar
    36   19   20 1
    37   19   56 1
    38   20   21 1
    39   20   57 1
    40   20   58 1
    41   21   22 1
    42   21   59 1
    43   21   60 1
    44   22   23 1
    45   22   61 1
    46   22   62 1
    47   23   24 1
    48   23   63 1
    49   23   64 1
    50   24   25 1
    51   24   65 1
    52   24   66 1
    53   25   30 1
    54   25   26 1
    55   26   27 1
    56   26   67 1
    57   26   68 1
    58   27   28 1
    59   27   69 1
    60   27   70 1
    61   28   29 1
    62   28   31 1
    63   28   87 1
    64   29   30 1
    65   29   71 1
    66   29   72 1
    67   30   73 1
    68   30   74 1
    69   31   75 1
    70   31   76 1
    71   31   77 1
    72   32   37 ar
    73   32   33 ar
    74   33   34 ar
    75   33   78 1
    76   34   35 ar
    77   34   40 1
    78   35   36 ar
    79   35   79 1
    80   36   37 ar
    81   36   38 1
    82   37   80 1
    83   38   39 1
    84   39   81 1
    85   39   82 1
    86   39   83 1
    87   40   41 1
    88   41   84 1
    89   41   85 1
    90   41   86 1
@<TRIPOS>MOLECULE
CHEMBL189995
   81    84     0     0     0
SMALL
USER_CHARGES

@<TRIPOS>ATOM
      1 C1         -0.0187    1.5258    0.0104 C.3       1 <0>        -0.1651
      2 C2          0.0021   -0.0041    0.0020 C.3       1 <0>         0.1878
      3 C3          0.7421   -0.5109    1.2415 C.3       1 <0>        -0.1649
      4 C4         -1.4333   -0.5336    0.0129 C.3       1 <0>        -0.1571
      5 N1          0.6878   -0.4765   -1.2033 N.am      1 <0>        -0.7356
      6 C5          1.9715   -0.1323   -1.4270 C.2       1 <0>         0.6956
      7 O1          2.5604    0.5703   -0.6286 O.2       1 <0>        -0.5175
      8 N2          2.6023   -0.5669   -2.5359 N.am      1 <0>        -0.6657
      9 C6          3.9247   -0.2123   -2.7663 C.ar      1 <0>         0.4529
     10 C7          4.5693   -0.6712   -3.9356 C.ar      1 <0>        -0.1540
     11 C8          5.8881   -0.3212   -4.1717 C.ar      1 <0>         0.0271
     12 C9          6.5368    0.4880   -3.2221 C.ar      1 <0>        -0.2368
     13 C10         7.8708    0.8895   -3.3824 C.ar      1 <0>         0.2222
     14 N3          8.4455    1.6459   -2.4759 N.ar      1 <0>        -0.5407
     15 C11         7.8088    2.0618   -1.3834 C.ar      1 <0>         0.4054
     16 C12         6.4944    1.7182   -1.1375 C.ar      1 <0>        -0.2384
     17 C13         5.8226    0.9111   -2.0693 C.ar      1 <0>         0.2373
     18 N4          4.5491    0.5491   -1.8926 N.ar      1 <0>        -0.4828
     19 N5          8.4837    2.8609   -0.4679 N.pl3     1 <0>        -0.7252
     20 C14         7.7998    3.3283    0.7404 C.3       1 <0>         0.1284
     21 C15         8.7592    4.1828    1.5712 C.3       1 <0>        -0.1288
     22 C16         8.0449    4.6711    2.8331 C.3       1 <0>         0.0578
     23 N6          8.9661    5.4915    3.6308 N.3       1 <0>        -0.5389
     24 C17        10.0746    4.6809    4.1544 C.3       1 <0>         0.0193
     25 C18        11.0406    5.5816    4.9273 C.3       1 <0>        -0.0025
     26 N7         10.3245    6.2342    6.0313 N.4       1 <0>        -0.3886
     27 C19         9.2360    7.0594    5.4913 C.3       1 <0>        -0.0024
     28 C20         8.2551    6.1709    4.7230 C.3       1 <0>         0.0249
     29 C21        11.2562    7.0847    6.7840 C.3       1 <0>        -0.0458
     30 C22         3.8387   -1.5231   -4.9046 C.ar      1 <0>         0.0368
     31 C23         3.1397   -2.6438   -4.4607 C.ar      1 <0>        -0.1996
     32 C24         2.4582   -3.4378   -5.3688 C.ar      1 <0>         0.1780
     33 C25         2.4715   -3.1183   -6.7187 C.ar      1 <0>        -0.2960
     34 C26         3.1664   -2.0032   -7.1640 C.ar      1 <0>         0.1781
     35 C27         3.8449   -1.2016   -6.2604 C.ar      1 <0>        -0.1737
     36 O2          3.1769   -1.6937   -8.4872 O.3       1 <0>        -0.3100
     37 C28         2.4514   -2.5601   -9.3619 C.3       1 <0>         0.0245
     38 O3          1.7762   -4.5310   -4.9368 O.3       1 <0>        -0.3111
     39 C29         1.0960   -5.3046   -5.9272 C.3       1 <0>         0.0244
     40 H1          1.0039    1.9031    0.0027 H         1 <0>         0.0798
     41 H2         -0.5459    1.8868   -0.8726 H         1 <0>         0.0534
     42 H3         -0.5289    1.8773    0.9072 H         1 <0>         0.0632
     43 H4          0.2319   -0.1594    2.1383 H         1 <0>         0.0630
     44 H5          0.7568   -1.6008    1.2356 H         1 <0>         0.0535
     45 H6          1.7647   -0.1336    1.2338 H         1 <0>         0.0797
     46 H7         -1.9605   -0.1726   -0.8702 H         1 <0>         0.0631
     47 H8         -1.4185   -1.6235    0.0069 H         1 <0>         0.0634
     48 H9         -1.9435   -0.1821    0.9097 H         1 <0>         0.0766
     49 H10         0.2179   -1.0371   -1.8404 H         1 <0>         0.3957
     50 H11         2.1325   -1.1275   -3.1729 H         1 <0>         0.4165
     51 H12         6.4032   -0.6599   -5.0584 H         1 <0>         0.1527
     52 H13         8.4269    0.5757   -4.2534 H         1 <0>         0.1704
     53 H14         5.9925    2.0642   -0.2459 H         1 <0>         0.1393
     54 H15         9.4075    3.1089   -0.6290 H         1 <0>         0.4052
     55 H16         6.9323    3.9254    0.4590 H         1 <0>         0.0690
     56 H17         7.4748    2.4704    1.3290 H         1 <0>         0.0657
     57 H18         9.6266    3.5858    1.8527 H         1 <0>         0.0712
     58 H19         9.0841    5.0408    0.9827 H         1 <0>         0.0850
     59 H20         7.1775    5.2681    2.5517 H         1 <0>         0.0941
     60 H21         7.7200    3.8131    3.4217 H         1 <0>         0.0522
     61 H22         9.6809    3.9134    4.8207 H         1 <0>         0.0618
     62 H23        10.6023    4.2080    3.3260 H         1 <0>         0.1253
     63 H24        11.8561    4.9799    5.3285 H         1 <0>         0.1357
     64 H25        11.4445    6.3405    4.2573 H         1 <0>         0.1376
     65 H26         8.7137    7.5533    6.3106 H         1 <0>         0.1362
     66 H27         9.6492    7.8108    4.8184 H         1 <0>         0.1377
     67 H28         7.4552    6.7852    4.3096 H         1 <0>         0.1247
     68 H29         7.8313    5.4280    5.3987 H         1 <0>         0.0617
     69 H30        11.6716    7.8438    6.1211 H         1 <0>         0.1231
     70 H31        10.7250    7.5690    7.6033 H         1 <0>         0.1243
     71 H32        12.0634    6.4723    7.1859 H         1 <0>         0.1242
     72 H33         3.1296   -2.8935   -3.4101 H         1 <0>         0.1344
     73 H34         1.9400   -3.7392   -7.4246 H         1 <0>         0.1386
     74 H35         4.3820   -0.3311   -6.6071 H         1 <0>         0.1379
     75 H36         2.8585   -3.5690   -9.2938 H         1 <0>         0.0578
     76 H37         1.4007   -2.5720   -9.0723 H         1 <0>         0.0574
     77 H38         2.5417   -2.2003  -10.3868 H         1 <0>         0.1058
     78 H39         0.3590   -4.6805   -6.4327 H         1 <0>         0.0578
     79 H40         1.8166   -5.6777   -6.6549 H         1 <0>         0.0580
     80 H41         0.5935   -6.1456   -5.4494 H         1 <0>         0.1055
     81 H42         9.9407    5.5312    6.6451 H         1 <0>         0.4226
@<TRIPOS>BOND
     1    1    2 1
     2    1   40 1
     3    1   41 1
     4    1   42 1
     5    2    3 1
     6    2    4 1
     7    2    5 1
     8    3   43 1
     9    3   44 1
    10    3   45 1
    11    4   46 1
    12    4   47 1
    13    4   48 1
    14    5    6 am
    15    5   49 1
    16    6    7 2
    17    6    8 am
    18    8    9 1
    19    8   50 1
    20    9   18 ar
    21    9   10 ar
    22   10   11 ar
    23   10   30 1
    24   11   12 ar
    25   11   51 1
    26   12   17 ar
    27   12   13 ar
    28   13   14 ar
    29   13   52 1
    30   14   15 ar
    31   15   16 ar
    32   15   19 1
    33   16   17 ar
    34   16   53 1
    35   17   18 ar
    36   19   20 1
    37   19   54 1
    38   20   21 1
    39   20   55 1
    40   20   56 1
    41   21   22 1
    42   21   57 1
    43   21   58 1
    44   22   23 1
    45   22   59 1
    46   22   60 1
    47   23   28 1
    48   23   24 1
    49   24   25 1
    50   24   61 1
    51   24   62 1
    52   25   26 1
    53   25   63 1
    54   25   64 1
    55   26   27 1
    56   26   29 1
    57   26   81 1
    58   27   28 1
    59   27   65 1
    60   27   66 1
    61   28   67 1
    62   28   68 1
    63   29   69 1
    64   29   70 1
    65   29   71 1
    66   30   35 ar
    67   30   31 ar
    68   31   32 ar
    69   31   72 1
    70   32   33 ar
    71   32   38 1
    72   33   34 ar
    73   33   73 1
    74   34   35 ar
    75   34   36 1
    76   35   74 1
    77   36   37 1
    78   37   75 1
    79   37   76 1
    80   37   77 1
    81   38   39 1
    82   39   78 1
    83   39   79 1
    84   39   80 1
@<TRIPOS>MOLECULE
CHEMBL189995__1
   81    84     0     0     0
SMALL
USER_CHARGES

@<TRIPOS>ATOM
      1 C1         -0.0187    1.5258    0.0104 C.3       1 <0>        -0.1648
      2 C2          0.0021   -0.0041    0.0020 C.3       1 <0>         0.1876
      3 C3          0.7421   -0.5109    1.2415 C.3       1 <0>        -0.1648
      4 C4         -1.4333   -0.5336    0.0129 C.3       1 <0>        -0.1576
      5 N1          0.6878   -0.4765   -1.2033 N.am      1 <0>        -0.7349
      6 C5          1.9715   -0.1323   -1.4270 C.2       1 <0>         0.6964
      7 O1          2.5604    0.5703   -0.6286 O.2       1 <0>        -0.5190
      8 N2          2.6023   -0.5669   -2.5359 N.am      1 <0>        -0.6653
      9 C6          3.9247   -0.2123   -2.7663 C.ar      1 <0>         0.4550
     10 C7          4.5693   -0.6712   -3.9356 C.ar      1 <0>        -0.1492
     11 C8          5.8881   -0.3212   -4.1717 C.ar      1 <0>         0.0258
     12 C9          6.5368    0.4880   -3.2221 C.ar      1 <0>        -0.2340
     13 C10         7.8708    0.8895   -3.3824 C.ar      1 <0>         0.2242
     14 N3          8.4455    1.6459   -2.4759 N.ar      1 <0>        -0.5405
     15 C11         7.8088    2.0618   -1.3834 C.ar      1 <0>         0.4023
     16 C12         6.4944    1.7182   -1.1375 C.ar      1 <0>        -0.2357
     17 C13         5.8226    0.9111   -2.0693 C.ar      1 <0>         0.2365
     18 N4          4.5491    0.5491   -1.8926 N.ar      1 <0>        -0.4832
     19 N5          8.4837    2.8609   -0.4679 N.pl3     1 <0>        -0.7294
     20 C14         7.7998    3.3283    0.7404 C.3       1 <0>         0.1341
     21 C15         8.7592    4.1828    1.5712 C.3       1 <0>        -0.1617
     22 C16         8.0449    4.6711    2.8331 C.3       1 <0>        -0.0047
     23 N6          8.9661    5.4915    3.6308 N.4       1 <0>        -0.3859
     24 C17        10.0760    4.6566    4.1089 C.3       1 <0>        -0.0075
     25 C18        11.0457    5.5149    4.9242 C.3       1 <0>         0.0248
     26 N7         10.3311    6.1090    6.0628 N.3       1 <0>        -0.5437
     27 C19         9.2016    6.9279    5.6004 C.3       1 <0>         0.0240
     28 C20         8.2471    6.0580    4.7796 C.3       1 <0>        -0.0021
     29 C21        11.2427    6.8964    6.9036 C.3       1 <0>         0.0193
     30 C22         3.8387   -1.5231   -4.9046 C.ar      1 <0>         0.0338
     31 C23         3.1397   -2.6438   -4.4607 C.ar      1 <0>        -0.1994
     32 C24         2.4582   -3.4378   -5.3688 C.ar      1 <0>         0.1787
     33 C25         2.4715   -3.1183   -6.7187 C.ar      1 <0>        -0.2951
     34 C26         3.1664   -2.0032   -7.1640 C.ar      1 <0>         0.1787
     35 C27         3.8449   -1.2016   -6.2604 C.ar      1 <0>        -0.1734
     36 O2          3.1769   -1.6937   -8.4872 O.3       1 <0>        -0.3098
     37 C28         2.4514   -2.5601   -9.3619 C.3       1 <0>         0.0242
     38 O3          1.7762   -4.5310   -4.9368 O.3       1 <0>        -0.3108
     39 C29         1.0960   -5.3046   -5.9272 C.3       1 <0>         0.0241
     40 H1          1.0039    1.9031    0.0027 H         1 <0>         0.0791
     41 H2         -0.5459    1.8868   -0.8726 H         1 <0>         0.0535
     42 H3         -0.5289    1.8773    0.9072 H         1 <0>         0.0636
     43 H4          0.2319   -0.1594    2.1383 H         1 <0>         0.0636
     44 H5          0.7568   -1.6008    1.2356 H         1 <0>         0.0539
     45 H6          1.7647   -0.1336    1.2338 H         1 <0>         0.0791
     46 H7         -1.9605   -0.1726   -0.8702 H         1 <0>         0.0633
     47 H8         -1.4185   -1.6235    0.0069 H         1 <0>         0.0638
     48 H9         -1.9435   -0.1821    0.9097 H         1 <0>         0.0772
     49 H10         0.2179   -1.0371   -1.8404 H         1 <0>         0.3962
     50 H11         2.1325   -1.1275   -3.1729 H         1 <0>         0.4173
     51 H12         6.4032   -0.6599   -5.0584 H         1 <0>         0.1539
     52 H13         8.4269    0.5757   -4.2534 H         1 <0>         0.1718
     53 H14         5.9925    2.0642   -0.2459 H         1 <0>         0.1390
     54 H15         9.4075    3.1089   -0.6290 H         1 <0>         0.4064
     55 H16         6.9323    3.9254    0.4590 H         1 <0>         0.0754
     56 H17         7.4748    2.4704    1.3290 H         1 <0>         0.0756
     57 H18         9.6266    3.5858    1.8527 H         1 <0>         0.0954
     58 H19         9.0841    5.0408    0.9827 H         1 <0>         0.0951
     59 H20         7.1775    5.2681    2.5517 H         1 <0>         0.1371
     60 H21         7.7200    3.8131    3.4217 H         1 <0>         0.1365
     61 H22         9.6842    3.8557    4.7360 H         1 <0>         0.1393
     62 H23        10.6007    4.2264    3.2558 H         1 <0>         0.1365
     63 H24        11.8616    4.8925    5.2916 H         1 <0>         0.1238
     64 H25        11.4481    6.3077    4.2936 H         1 <0>         0.0604
     65 H26         8.6722    7.3364    6.4612 H         1 <0>         0.1244
     66 H27         9.5736    7.7440    4.9810 H         1 <0>         0.0605
     67 H28         7.4159    6.6667    4.4237 H         1 <0>         0.1372
     68 H29         7.8647    5.2499    5.4033 H         1 <0>         0.1391
     69 H30        11.6830    7.6979    6.3105 H         1 <0>         0.0396
     70 H31        10.6882    7.3247    7.7386 H         1 <0>         0.0842
     71 H32        12.0335    6.2507    7.2857 H         1 <0>         0.0845
     72 H33         3.1296   -2.8935   -3.4101 H         1 <0>         0.1345
     73 H34         1.9400   -3.7392   -7.4246 H         1 <0>         0.1391
     74 H35         4.3820   -0.3311   -6.6071 H         1 <0>         0.1379
     75 H36         2.5417   -2.2003  -10.3868 H         1 <0>         0.1062
     76 H37         2.8585   -3.5690   -9.2938 H         1 <0>         0.0582
     77 H38         1.4007   -2.5720   -9.0723 H         1 <0>         0.0577
     78 H39         0.3590   -4.6805   -6.4327 H         1 <0>         0.0581
     79 H40         1.8166   -5.6777   -6.6549 H         1 <0>         0.0583
     80 H41         0.5935   -6.1456   -5.4494 H         1 <0>         0.1060
     81 H42         9.3302    6.2396    3.0600 H         1 <0>         0.4207
@<TRIPOS>BOND
     1    1    2 1
     2    1   40 1
     3    1   41 1
     4    1   42 1
     5    2    3 1
     6    2    4 1
     7    2    5 1
     8    3   43 1
     9    3   44 1
    10    3   45 1
    11    4   46 1
    12    4   47 1
    13    4   48 1
    14    5    6 am
    15    5   49 1
    16    6    7 2
    17    6    8 am
    18    8    9 1
    19    8   50 1
    20    9   18 ar
    21    9   10 ar
    22   10   11 ar
    23   10   30 1
    24   11   12 ar
    25   11   51 1
    26   12   17 ar
    27   12   13 ar
    28   13   14 ar
    29   13   52 1
    30   14   15 ar
    31   15   16 ar
    32   15   19 1
    33   16   17 ar
    34   16   53 1
    35   17   18 ar
    36   19   20 1
    37   19   54 1
    38   20   21 1
    39   20   55 1
    40   20   56 1
    41   21   22 1
    42   21   57 1
    43   21   58 1
    44   22   23 1
    45   22   59 1
    46   22   60 1
    47   23   28 1
    48   23   24 1
    49   23   81 1
    50   24   25 1
    51   24   61 1
    52   24   62 1
    53   25   26 1
    54   25   63 1
    55   25   64 1
    56   26   27 1
    57   26   29 1
    58   27   28 1
    59   27   65 1
    60   27   66 1
    61   28   67 1
    62   28   68 1
    63   29   69 1
    64   29   70 1
    65   29   71 1
    66   30   35 ar
    67   30   31 ar
    68   31   32 ar
    69   31   72 1
    70   32   33 ar
    71   32   38 1
    72   33   34 ar
    73   33   73 1
    74   34   35 ar
    75   34   36 1
    76   35   74 1
    77   36   37 1
    78   37   75 1
    79   37   76 1
    80   37   77 1
    81   38   39 1
    82   39   78 1
    83   39   79 1
    84   39   80 1
@<TRIPOS>MOLECULE
CHEMBL378003
   35    39     0     0     0
SMALL
USER_CHARGES

@<TRIPOS>ATOM
      1 C1         -0.0168    1.3846    0.0097 C.ar      1 <0>        -0.1531
      2 C2          0.0021   -0.0041    0.0020 C.ar      1 <0>        -0.0617
      3 C3         -1.1726   -0.7214    0.0094 C.ar      1 <0>        -0.1437
      4 C4         -2.3924   -0.0492    0.0251 C.ar      1 <0>         0.1274
      5 C5         -2.4060    1.3573    0.0332 C.ar      1 <0>        -0.1413
      6 C6         -1.2016    2.0634    0.0303 C.ar      1 <0>        -0.0285
      7 C7         -3.8190    1.7554    0.0488 C.2       1 <0>         0.1534
      8 N1         -4.5389    0.6572    0.0493 N.2       1 <0>        -0.2255
      9 H1         -3.9977   -1.3855    0.0326 H         1 <0>         0.4471
     10 N2         -3.7007   -0.4621    0.0351 N.pl3     1 <0>        -0.4907
     11 C8         -4.3362    3.1380    0.0620 C.2       1 <0>         0.3702
     12 N3         -5.6611    3.4834    0.0819 N.pl3     1 <0>        -0.5807
     13 H2         -6.4151    2.8731    0.0895 H         1 <0>         0.4320
     14 C9         -5.7233    4.8650    0.0896 C.ar      1 <0>         0.0510
     15 C10        -6.7676    5.7791    0.1081 C.ar      1 <0>        -0.0773
     16 C11        -6.4987    7.1305    0.1107 C.ar      1 <0>        -0.1079
     17 C12        -5.1827    7.5877    0.0944 C.ar      1 <0>         0.1309
     18 C13        -4.1317    6.6915    0.0755 C.ar      1 <0>        -0.0756
     19 C14        -4.3921    5.3175    0.0736 C.ar      1 <0>         0.0782
     20 N4         -3.5957    4.2208    0.0621 N.2       1 <0>        -0.4563
     21 N5         -4.9233    8.9672    0.0968 N.pl3     1 <0>        -0.4090
     22 C15        -5.8559    9.9715    0.1196 C.2       1 <0>        -0.0546
     23 C16        -5.1769   11.1345    0.1130 C.2       1 <0>        -0.0204
     24 N6         -3.8657   10.8536    0.0868 N.2       1 <0>        -0.4842
     25 C17        -3.7010    9.5587    0.0829 C.2       1 <0>         0.1901
     26 H3          0.9139    1.9325    0.0037 H         1 <0>         0.1326
     27 H4          0.9475   -0.5261   -0.0102 H         1 <0>         0.1346
     28 H5         -1.1486   -1.8011    0.0026 H         1 <0>         0.1310
     29 H6         -1.2070    3.1434    0.0361 H         1 <0>         0.1424
     30 H7         -7.7901    5.4315    0.1201 H         1 <0>         0.1389
     31 H8         -7.3131    7.8397    0.1251 H         1 <0>         0.1426
     32 H9         -3.1132    7.0504    0.0629 H         1 <0>         0.1439
     33 H10        -6.9292    9.8530    0.1389 H         1 <0>         0.1790
     34 H11        -5.6128   12.1225    0.1258 H         1 <0>         0.1755
     35 H12        -2.7516    9.0440    0.0682 H         1 <0>         0.2100
@<TRIPOS>BOND
     1    1    2 ar
     2    1   26 1
     3    1    6 ar
     4    2    3 ar
     5    2   27 1
     6    3    4 ar
     7    3   28 1
     8    4   10 1
     9    4    5 ar
    10    5    6 ar
    11    5    7 1
    12    6   29 1
    13    7    8 2
    14    7   11 1
    15    8   10 1
    16    9   10 1
    17   11   20 2
    18   11   12 1
    19   12   13 1
    20   12   14 1
    21   14   19 ar
    22   14   15 ar
    23   15   16 ar
    24   15   30 1
    25   16   17 ar
    26   16   31 1
    27   17   18 ar
    28   17   21 1
    29   18   19 ar
    30   18   32 1
    31   19   20 1
    32   21   25 1
    33   21   22 1
    34   22   23 2
    35   22   33 1
    36   23   24 1
    37   23   34 1
    38   24   25 2
    39   25   35 1
@<TRIPOS>MOLECULE
CHEMBL431942
   75    78     0     0     0
SMALL
USER_CHARGES

@<TRIPOS>ATOM
      1 C1         -0.0187    1.5258    0.0104 C.3       1 <0>        -0.1657
      2 C2          0.0021   -0.0041    0.0020 C.3       1 <0>         0.1878
      3 C3          0.7421   -0.5109    1.2415 C.3       1 <0>        -0.1657
      4 C4         -1.4333   -0.5336    0.0129 C.3       1 <0>        -0.1563
      5 N1          0.6878   -0.4765   -1.2033 N.am      1 <0>        -0.7339
      6 C5          1.9715   -0.1323   -1.4270 C.2       1 <0>         0.6930
      7 O1          2.5604    0.5703   -0.6286 O.2       1 <0>        -0.5047
      8 N2          2.6023   -0.5669   -2.5359 N.am      1 <0>        -0.6592
      9 C6          3.9238   -0.2125   -2.7662 C.ar      1 <0>         0.4876
     10 C7          4.5675   -0.6715   -3.9352 C.ar      1 <0>        -0.1606
     11 C8          5.8872   -0.3194   -4.1692 C.ar      1 <0>         0.0474
     12 C9          6.5314    0.4893   -3.2184 C.ar      1 <0>        -0.2907
     13 C10         7.8678    0.8958   -3.3728 C.ar      1 <0>         0.2659
     14 N3          8.4057    1.6548   -2.4396 N.ar      1 <0>        -0.5737
     15 C11         7.7110    2.0355   -1.3696 C.ar      1 <0>         0.5908
     16 N4          6.4547    1.6836   -1.1730 N.ar      1 <0>        -0.5593
     17 C12         5.8199    0.9133   -2.0656 C.ar      1 <0>         0.4312
     18 N5          4.5480    0.5494   -1.8914 N.ar      1 <0>        -0.4747
     19 N6          8.3315    2.8317   -0.4257 N.pl3     1 <0>        -0.6989
     20 C13         9.7260    3.2396   -0.6140 C.3       1 <0>         0.1392
     21 C14        10.1665    4.1094    0.5651 C.3       1 <0>        -0.1329
     22 C15        11.6228    4.5354    0.3685 C.3       1 <0>        -0.1438
     23 C16        12.0634    5.4051    1.5476 C.3       1 <0>        -0.0084
     24 N7         13.4616    5.8141    1.3589 N.4       1 <0>        -0.3867
     25 C17        14.3283    4.6291    1.4028 C.3       1 <0>        -0.0070
     26 C18        15.7830    5.0525    1.1874 C.3       1 <0>         0.0245
     27 N8         16.1733    6.0053    2.2362 N.3       1 <0>        -0.5440
     28 C19        15.2983    7.1861    2.2206 C.3       1 <0>         0.0240
     29 C20        13.8477    6.7451    2.4274 C.3       1 <0>        -0.0020
     30 C21        17.5833    6.3930    2.0969 C.3       1 <0>         0.0193
     31 C22         3.8381   -1.5237   -4.9046 C.ar      1 <0>        -0.0440
     32 C23         3.1303   -0.9407   -5.9556 C.ar      1 <0>        -0.0129
     33 C24         2.4531   -1.7403   -6.8557 C.ar      1 <0>        -0.1037
     34 C25         2.4760   -3.1162   -6.7165 C.ar      1 <0>        -0.0815
     35 C26         3.1756   -3.7004   -5.6762 C.ar      1 <0>        -0.1037
     36 C27         3.8616   -2.9122   -4.7727 C.ar      1 <0>        -0.0131
     37 Cl1         4.7451   -3.6476   -3.4719 Cl        1 <0>        -0.0433
     38 Cl2         3.0999    0.7861   -6.1317 Cl        1 <0>        -0.0433
     39 H1          1.0039    1.9031    0.0027 H         1 <0>         0.0802
     40 H2         -0.5459    1.8868   -0.8726 H         1 <0>         0.0532
     41 H3         -0.5289    1.8773    0.9072 H         1 <0>         0.0646
     42 H4          0.2319   -0.1594    2.1383 H         1 <0>         0.0646
     43 H5          0.7568   -1.6008    1.2356 H         1 <0>         0.0532
     44 H6          1.7647   -0.1336    1.2338 H         1 <0>         0.0803
     45 H7         -1.9605   -0.1726   -0.8702 H         1 <0>         0.0630
     46 H8         -1.4185   -1.6235    0.0069 H         1 <0>         0.0630
     47 H9         -1.9435   -0.1821    0.9097 H         1 <0>         0.0775
     48 H10         0.2179   -1.0371   -1.8404 H         1 <0>         0.3948
     49 H11         2.1325   -1.1275   -3.1729 H         1 <0>         0.4130
     50 H12         6.4045   -0.6567   -5.0551 H         1 <0>         0.1525
     51 H13         8.4410    0.5928   -4.2366 H         1 <0>         0.1806
     52 H14         7.8438    3.1205    0.3614 H         1 <0>         0.4173
     53 H15        10.3593    2.3542   -0.6690 H         1 <0>         0.0711
     54 H16         9.8162    3.8089   -1.5391 H         1 <0>         0.0711
     55 H17         9.5332    4.9948    0.6201 H         1 <0>         0.0832
     56 H18        10.0763    3.5401    1.4902 H         1 <0>         0.0833
     57 H19        12.2561    3.6500    0.3135 H         1 <0>         0.0915
     58 H20        11.7131    5.1047   -0.5566 H         1 <0>         0.0913
     59 H21        11.4301    6.2905    1.6026 H         1 <0>         0.1330
     60 H22        11.9731    4.8358    2.4727 H         1 <0>         0.1325
     61 H23        14.2312    4.1437    2.3739 H         1 <0>         0.1382
     62 H24        14.0324    3.9333    0.6177 H         1 <0>         0.1374
     63 H25        16.4280    4.1751    1.2348 H         1 <0>         0.1237
     64 H26        15.8832    5.5257    0.2106 H         1 <0>         0.0606
     65 H27        15.5897    7.8653    3.0217 H         1 <0>         0.1239
     66 H28        15.3906    7.6944    1.2608 H         1 <0>         0.0604
     67 H29        13.1954    7.6180    2.4020 H         1 <0>         0.1361
     68 H30        13.7530    6.2489    3.3933 H         1 <0>         0.1379
     69 H31        17.7371    6.8611    1.1247 H         1 <0>         0.0396
     70 H32        17.8458    7.0984    2.8854 H         1 <0>         0.0839
     71 H33        18.2134    5.5072    2.1774 H         1 <0>         0.0845
     72 H34         1.9044   -1.2901   -7.6698 H         1 <0>         0.1465
     73 H35         1.9449   -3.7370   -7.4229 H         1 <0>         0.1484
     74 H36         3.1893   -4.7754   -5.5726 H         1 <0>         0.1466
     75 H37        13.5607    6.2698    0.4641 H         1 <0>         0.4206
@<TRIPOS>BOND
     1    1    2 1
     2    1   39 1
     3    1   40 1
     4    1   41 1
     5    2    3 1
     6    2    4 1
     7    2    5 1
     8    3   42 1
     9    3   43 1
    10    3   44 1
    11    4   45 1
    12    4   46 1
    13    4   47 1
    14    5    6 am
    15    5   48 1
    16    6    7 2
    17    6    8 am
    18    8    9 1
    19    8   49 1
    20    9   18 ar
    21    9   10 ar
    22   10   11 ar
    23   10   31 1
    24   11   12 ar
    25   11   50 1
    26   12   17 ar
    27   12   13 ar
    28   13   14 ar
    29   13   51 1
    30   14   15 ar
    31   15   16 ar
    32   15   19 1
    33   16   17 ar
    34   17   18 ar
    35   19   20 1
    36   19   52 1
    37   20   21 1
    38   20   53 1
    39   20   54 1
    40   21   22 1
    41   21   55 1
    42   21   56 1
    43   22   23 1
    44   22   57 1
    45   22   58 1
    46   23   24 1
    47   23   59 1
    48   23   60 1
    49   24   29 1
    50   24   25 1
    51   24   75 1
    52   25   26 1
    53   25   61 1
    54   25   62 1
    55   26   27 1
    56   26   63 1
    57   26   64 1
    58   27   28 1
    59   27   30 1
    60   28   29 1
    61   28   65 1
    62   28   66 1
    63   29   67 1
    64   29   68 1
    65   30   69 1
    66   30   70 1
    67   30   71 1
    68   31   36 ar
    69   31   32 ar
    70   32   33 ar
    71   32   38 1
    72   33   34 ar
    73   33   72 1
    74   34   35 ar
    75   34   73 1
    76   35   36 ar
    77   35   74 1
    78   36   37 1
@<TRIPOS>MOLECULE
CHEMBL431942__1
   75    78     0     0     0
SMALL
USER_CHARGES

@<TRIPOS>ATOM
      1 C1         -0.0187    1.5258    0.0104 C.3       1 <0>        -0.1659
      2 C2          0.0021   -0.0041    0.0020 C.3       1 <0>         0.1880
      3 C3          0.7421   -0.5109    1.2415 C.3       1 <0>        -0.1658
      4 C4         -1.4333   -0.5336    0.0129 C.3       1 <0>        -0.1560
      5 N1          0.6878   -0.4765   -1.2033 N.am      1 <0>        -0.7345
      6 C5          1.9715   -0.1323   -1.4270 C.2       1 <0>         0.6927
      7 O1          2.5604    0.5703   -0.6286 O.2       1 <0>        -0.5042
      8 N2          2.6023   -0.5669   -2.5359 N.am      1 <0>        -0.6596
      9 C6          3.9238   -0.2125   -2.7662 C.ar      1 <0>         0.4863
     10 C7          4.5675   -0.6715   -3.9352 C.ar      1 <0>        -0.1642
     11 C8          5.8872   -0.3194   -4.1692 C.ar      1 <0>         0.0485
     12 C9          6.5314    0.4893   -3.2184 C.ar      1 <0>        -0.2928
     13 C10         7.8678    0.8958   -3.3728 C.ar      1 <0>         0.2650
     14 N3          8.4057    1.6548   -2.4396 N.ar      1 <0>        -0.5712
     15 C11         7.7110    2.0355   -1.3696 C.ar      1 <0>         0.5922
     16 N4          6.4547    1.6836   -1.1730 N.ar      1 <0>        -0.5619
     17 C12         5.8199    0.9133   -2.0656 C.ar      1 <0>         0.4317
     18 N5          4.5480    0.5494   -1.8914 N.ar      1 <0>        -0.4749
     19 N6          8.3315    2.8317   -0.4257 N.pl3     1 <0>        -0.6960
     20 C13         9.7260    3.2396   -0.6140 C.3       1 <0>         0.1394
     21 C14        10.1665    4.1094    0.5651 C.3       1 <0>        -0.1353
     22 C15        11.6228    4.5354    0.3685 C.3       1 <0>        -0.1122
     23 C16        12.0634    5.4051    1.5476 C.3       1 <0>         0.0545
     24 N7         13.4616    5.8141    1.3589 N.3       1 <0>        -0.5396
     25 C17        14.3634    4.6557    1.4295 C.3       1 <0>         0.0199
     26 C18        15.7998    5.1147    1.1693 C.3       1 <0>        -0.0028
     27 N8         16.1830    6.1171    2.1722 N.4       1 <0>        -0.3886
     28 C19        15.2889    7.2782    2.0729 C.3       1 <0>        -0.0024
     29 C20        13.8483    6.8372    2.3407 C.3       1 <0>         0.0247
     30 C21        17.5681    6.5441    1.9329 C.3       1 <0>        -0.0458
     31 C22         3.8381   -1.5237   -4.9046 C.ar      1 <0>        -0.0417
     32 C23         3.1303   -0.9407   -5.9556 C.ar      1 <0>        -0.0132
     33 C24         2.4531   -1.7403   -6.8557 C.ar      1 <0>        -0.1040
     34 C25         2.4760   -3.1162   -6.7165 C.ar      1 <0>        -0.0825
     35 C26         3.1756   -3.7004   -5.6762 C.ar      1 <0>        -0.1042
     36 C27         3.8616   -2.9122   -4.7727 C.ar      1 <0>        -0.0134
     37 Cl1         4.7451   -3.6476   -3.4719 Cl        1 <0>        -0.0435
     38 Cl2         3.0999    0.7861   -6.1317 Cl        1 <0>        -0.0430
     39 H1          1.0039    1.9031    0.0027 H         1 <0>         0.0806
     40 H2         -0.5459    1.8868   -0.8726 H         1 <0>         0.0531
     41 H3         -0.5289    1.8773    0.9072 H         1 <0>         0.0643
     42 H4          0.2319   -0.1594    2.1383 H         1 <0>         0.0643
     43 H5          0.7568   -1.6008    1.2356 H         1 <0>         0.0530
     44 H6          1.7647   -0.1336    1.2338 H         1 <0>         0.0806
     45 H7         -1.9605   -0.1726   -0.8702 H         1 <0>         0.0629
     46 H8         -1.4185   -1.6235    0.0069 H         1 <0>         0.0628
     47 H9         -1.9435   -0.1821    0.9097 H         1 <0>         0.0772
     48 H10         0.2179   -1.0371   -1.8404 H         1 <0>         0.3945
     49 H11         2.1325   -1.1275   -3.1729 H         1 <0>         0.4124
     50 H12         6.4045   -0.6567   -5.0551 H         1 <0>         0.1515
     51 H13         8.4410    0.5928   -4.2366 H         1 <0>         0.1799
     52 H14         7.8438    3.1205    0.3614 H         1 <0>         0.4166
     53 H15        10.3593    2.3542   -0.6690 H         1 <0>         0.0678
     54 H16         9.8162    3.8089   -1.5391 H         1 <0>         0.0700
     55 H17         9.5332    4.9948    0.6201 H         1 <0>         0.0754
     56 H18        10.0763    3.5401    1.4902 H         1 <0>         0.0718
     57 H19        12.2561    3.6500    0.3135 H         1 <0>         0.0672
     58 H20        11.7131    5.1047   -0.5566 H         1 <0>         0.0810
     59 H21        11.4301    6.2905    1.6026 H         1 <0>         0.0902
     60 H22        11.9731    4.8358    2.4727 H         1 <0>         0.0481
     61 H23        14.2994    4.2049    2.4198 H         1 <0>         0.0606
     62 H24        14.0737    3.9229    0.6765 H         1 <0>         0.1262
     63 H25        16.4722    4.2593    1.2353 H         1 <0>         0.1355
     64 H26        15.8664    5.5531    0.1735 H         1 <0>         0.1378
     65 H27        15.5825    8.0268    2.8088 H         1 <0>         0.1356
     66 H28        15.3581    7.7056    1.0726 H         1 <0>         0.1377
     67 H29        13.1827    7.6959    2.2524 H         1 <0>         0.1237
     68 H30        13.7758    6.4223    3.3460 H         1 <0>         0.0604
     69 H31        17.6474    6.9783    0.9363 H         1 <0>         0.1232
     70 H32        17.8527    7.2880    2.6771 H         1 <0>         0.1241
     71 H33        18.2319    5.6828    2.0078 H         1 <0>         0.1242
     72 H34         1.9044   -1.2901   -7.6698 H         1 <0>         0.1461
     73 H35         1.9449   -3.7370   -7.4229 H         1 <0>         0.1478
     74 H36         3.1893   -4.7754   -5.5726 H         1 <0>         0.1460
     75 H37        16.1102    5.7146    3.0946 H         1 <0>         0.4224
@<TRIPOS>BOND
     1    1    2 1
     2    1   39 1
     3    1   40 1
     4    1   41 1
     5    2    3 1
     6    2    4 1
     7    2    5 1
     8    3   42 1
     9    3   43 1
    10    3   44 1
    11    4   45 1
    12    4   46 1
    13    4   47 1
    14    5    6 am
    15    5   48 1
    16    6    7 2
    17    6    8 am
    18    8    9 1
    19    8   49 1
    20    9   18 ar
    21    9   10 ar
    22   10   11 ar
    23   10   31 1
    24   11   12 ar
    25   11   50 1
    26   12   17 ar
    27   12   13 ar
    28   13   14 ar
    29   13   51 1
    30   14   15 ar
    31   15   16 ar
    32   15   19 1
    33   16   17 ar
    34   17   18 ar
    35   19   20 1
    36   19   52 1
    37   20   21 1
    38   20   53 1
    39   20   54 1
    40   21   22 1
    41   21   55 1
    42   21   56 1
    43   22   23 1
    44   22   57 1
    45   22   58 1
    46   23   24 1
    47   23   59 1
    48   23   60 1
    49   24   29 1
    50   24   25 1
    51   25   26 1
    52   25   61 1
    53   25   62 1
    54   26   27 1
    55   26   63 1
    56   26   64 1
    57   27   28 1
    58   27   30 1
    59   27   75 1
    60   28   29 1
    61   28   65 1
    62   28   66 1
    63   29   67 1
    64   29   68 1
    65   30   69 1
    66   30   70 1
    67   30   71 1
    68   31   36 ar
    69   31   32 ar
    70   32   33 ar
    71   32   38 1
    72   33   34 ar
    73   33   72 1
    74   34   35 ar
    75   34   73 1
    76   35   36 ar
    77   35   74 1
    78   36   37 1
@<TRIPOS>MOLECULE
CHEMBL106953
   49    52     0     0     0
SMALL
USER_CHARGES

@<TRIPOS>ATOM
      1 C1         -0.0178    1.4608    0.0101 C.3       1 <0>         0.0610
      2 N1          0.0021   -0.0041    0.0020 N.am      1 <0>        -0.5217
      3 C2         -1.1832   -0.7026    0.0039 C.ar      1 <0>         0.2710
      4 C3         -2.4056   -0.0412    0.0132 C.ar      1 <0>        -0.2948
      5 C4         -3.5734   -0.7908    0.0143 C.ar      1 <0>         0.4411
      6 N2         -3.5407   -2.1192    0.0065 N.ar      1 <0>        -0.5560
      7 C5         -2.4109   -2.7924   -0.0026 C.ar      1 <0>         0.2354
      8 C6         -1.1855   -2.1147   -0.0043 C.ar      1 <0>        -0.2290
      9 C7          0.0397   -2.8227   -0.0135 C.2       1 <0>         0.0219
     10 C8          1.2142   -2.1207   -0.0144 C.2       1 <0>        -0.1583
     11 C9          1.1810   -0.6564   -0.0127 C.2       1 <0>         0.5514
     12 O1          2.2233   -0.0259   -0.0189 O.2       1 <0>        -0.5068
     13 C10         2.5110   -2.8371   -0.0239 C.ar      1 <0>        -0.0140
     14 C11         3.1266   -3.1880    1.1783 C.ar      1 <0>        -0.0071
     15 C12         4.3355   -3.8557    1.1624 C.ar      1 <0>        -0.1056
     16 C13         4.9362   -4.1763   -0.0417 C.ar      1 <0>        -0.0860
     17 C14         4.3313   -3.8315   -1.2369 C.ar      1 <0>        -0.1055
     18 C15         3.1193   -3.1691   -1.2351 C.ar      1 <0>        -0.0070
     19 Cl1         2.3582   -2.7435   -2.7362 Cl        1 <0>        -0.0516
     20 Cl2         2.3749   -2.7855    2.6904 Cl        1 <0>        -0.0518
     21 N3         -4.7988   -0.1407    0.0241 N.pl3     1 <0>        -0.7218
     22 C16        -4.8513    1.3233    0.0332 C.3       1 <0>         0.1292
     23 C17        -6.3112    1.7812    0.0430 C.3       1 <0>        -0.1548
     24 C18        -6.3660    3.3102    0.0525 C.3       1 <0>         0.0960
     25 N4         -7.7638    3.7487    0.0618 N.pl3     1 <0>        -0.4094
     26 C19        -8.5458    3.9927   -1.0348 C.2       1 <0>         0.0257
     27 C20        -9.7538    4.3713   -0.5754 C.2       1 <0>         0.0053
     28 N5         -9.7106    4.3588    0.7651 N.pl3     1 <0>        -0.4755
     29 C21        -8.5232    3.9819    1.1539 C.cat     1 <0>         0.2894
     30 H1          1.0048    1.8381    0.0023 H         1 <0>         0.1055
     31 H2         -0.5450    1.8219   -0.8730 H         1 <0>         0.0759
     32 H3         -0.5280    1.8123    0.9069 H         1 <0>         0.0759
     33 H4         -2.4459    1.0381    0.0200 H         1 <0>         0.1397
     34 H5         -2.4284   -3.8722   -0.0087 H         1 <0>         0.1766
     35 H6          0.0476   -3.9026   -0.0194 H         1 <0>         0.1478
     36 H7          4.8130   -4.1278    2.0921 H         1 <0>         0.1445
     37 H8          5.8819   -4.6979   -0.0486 H         1 <0>         0.1467
     38 H9          4.8055   -4.0847   -2.1736 H         1 <0>         0.1446
     39 H10        -5.6209   -0.6556    0.0249 H         1 <0>         0.4101
     40 H11        -4.3466    1.6994    0.9231 H         1 <0>         0.0753
     41 H12        -4.3551    1.7102   -0.8568 H         1 <0>         0.0755
     42 H13        -6.8159    1.4051   -0.8469 H         1 <0>         0.0912
     43 H14        -6.8074    1.3943    0.9330 H         1 <0>         0.0892
     44 H15        -5.8613    3.6863    0.9424 H         1 <0>         0.1268
     45 H16        -5.8698    3.6971   -0.8375 H         1 <0>         0.1294
     46 H17        -8.2507    3.8999   -2.0695 H         1 <0>         0.2236
     47 H18       -10.6077    4.6382   -1.1803 H         1 <0>         0.2245
     48 H19        -8.2005    3.8766    2.1792 H         1 <0>         0.2604
     49 H20       -10.4468    4.5897    1.3529 H         1 <0>         0.4662
@<TRIPOS>BOND
     1    1    2 1
     2    1   30 1
     3    1   31 1
     4    1   32 1
     5    2   11 am
     6    2    3 1
     7    3    8 ar
     8    3    4 ar
     9    4    5 ar
    10    4   33 1
    11    5    6 ar
    12    5   21 1
    13    6    7 ar
    14    7    8 ar
    15    7   34 1
    16    8    9 1
    17    9   10 2
    18    9   35 1
    19   10   11 1
    20   10   13 1
    21   11   12 2
    22   13   18 ar
    23   13   14 ar
    24   14   15 ar
    25   14   20 1
    26   15   16 ar
    27   15   36 1
    28   16   17 ar
    29   16   37 1
    30   17   18 ar
    31   17   38 1
    32   18   19 1
    33   21   22 1
    34   21   39 1
    35   22   23 1
    36   22   40 1
    37   22   41 1
    38   23   24 1
    39   23   42 1
    40   23   43 1
    41   24   25 1
    42   24   44 1
    43   24   45 1
    44   25   29 1
    45   25   26 1
    46   26   27 2
    47   26   46 1
    48   27   28 1
    49   27   47 1
    50   28   29 2
    51   28   49 1
    52   29   48 1
@<TRIPOS>MOLECULE
CHEMBL106953__1
   48    51     0     0     0
SMALL
USER_CHARGES

@<TRIPOS>ATOM
      1 C1         -0.0178    1.4608    0.0101 C.3       1 <0>         0.0605
      2 N1          0.0021   -0.0041    0.0020 N.am      1 <0>        -0.5210
      3 C2         -1.1832   -0.7026    0.0039 C.ar      1 <0>         0.2720
      4 C3         -2.4056   -0.0412    0.0132 C.ar      1 <0>        -0.2972
      5 C4         -3.5734   -0.7908    0.0143 C.ar      1 <0>         0.4469
      6 N2         -3.5407   -2.1192    0.0065 N.ar      1 <0>        -0.5571
      7 C5         -2.4109   -2.7924   -0.0026 C.ar      1 <0>         0.2358
      8 C6         -1.1855   -2.1147   -0.0043 C.ar      1 <0>        -0.2390
      9 C7          0.0397   -2.8227   -0.0135 C.2       1 <0>         0.0300
     10 C8          1.2142   -2.1207   -0.0144 C.2       1 <0>        -0.1711
     11 C9          1.1810   -0.6564   -0.0127 C.2       1 <0>         0.5533
     12 O1          2.2233   -0.0259   -0.0189 O.2       1 <0>        -0.5141
     13 C10         2.5110   -2.8371   -0.0239 C.ar      1 <0>        -0.0071
     14 C11         3.1266   -3.1880    1.1783 C.ar      1 <0>        -0.0078
     15 C12         4.3355   -3.8557    1.1624 C.ar      1 <0>        -0.1068
     16 C13         4.9362   -4.1763   -0.0417 C.ar      1 <0>        -0.0892
     17 C14         4.3313   -3.8315   -1.2369 C.ar      1 <0>        -0.1068
     18 C15         3.1193   -3.1691   -1.2351 C.ar      1 <0>        -0.0077
     19 Cl1         2.3582   -2.7435   -2.7362 Cl        1 <0>        -0.0510
     20 Cl2         2.3749   -2.7855    2.6904 Cl        1 <0>        -0.0508
     21 N3         -4.7988   -0.1407    0.0241 N.pl3     1 <0>        -0.7145
     22 C16        -4.8513    1.3233    0.0332 C.3       1 <0>         0.1272
     23 C17        -6.3112    1.7812    0.0430 C.3       1 <0>        -0.1491
     24 C18        -6.3660    3.3102    0.0525 C.3       1 <0>         0.1095
     25 N4         -7.7638    3.7487    0.0618 N.pl3     1 <0>        -0.4619
     26 C19        -8.5457    3.9932   -1.0348 C.2       1 <0>        -0.0573
     27 C20        -9.7537    4.3716   -0.5754 C.2       1 <0>        -0.0273
     28 N5         -9.7106    4.3585    0.7651 N.2       1 <0>        -0.4939
     29 C21        -8.5233    3.9815    1.1539 C.2       1 <0>         0.1821
     30 H1          1.0048    1.8381    0.0023 H         1 <0>         0.1041
     31 H2         -0.5450    1.8219   -0.8730 H         1 <0>         0.0769
     32 H3         -0.5280    1.8123    0.9069 H         1 <0>         0.0772
     33 H4         -2.4459    1.0381    0.0200 H         1 <0>         0.1415
     34 H5         -2.4284   -3.8722   -0.0087 H         1 <0>         0.1741
     35 H6          0.0476   -3.9026   -0.0194 H         1 <0>         0.1452
     36 H7          4.8130   -4.1278    2.0921 H         1 <0>         0.1431
     37 H8          5.8819   -4.6979   -0.0486 H         1 <0>         0.1448
     38 H9          4.8055   -4.0847   -2.1736 H         1 <0>         0.1430
     39 H10        -5.6209   -0.6556    0.0249 H         1 <0>         0.4108
     40 H11        -4.3466    1.6994    0.9231 H         1 <0>         0.0724
     41 H12        -4.3551    1.7102   -0.8568 H         1 <0>         0.0718
     42 H13        -6.8159    1.4051   -0.8469 H         1 <0>         0.0818
     43 H14        -6.8074    1.3943    0.9330 H         1 <0>         0.0825
     44 H15        -5.8613    3.6863    0.9424 H         1 <0>         0.0993
     45 H16        -5.8698    3.6971   -0.8375 H         1 <0>         0.0969
     46 H17        -8.2504    3.9007   -2.0695 H         1 <0>         0.1741
     47 H18       -10.6076    4.6387   -1.1803 H         1 <0>         0.1701
     48 H19        -8.2007    3.8757    2.1792 H         1 <0>         0.2041
@<TRIPOS>BOND
     1    1    2 1
     2    1   30 1
     3    1   31 1
     4    1   32 1
     5    2   11 am
     6    2    3 1
     7    3    8 ar
     8    3    4 ar
     9    4    5 ar
    10    4   33 1
    11    5    6 ar
    12    5   21 1
    13    6    7 ar
    14    7    8 ar
    15    7   34 1
    16    8    9 1
    17    9   10 2
    18    9   35 1
    19   10   11 1
    20   10   13 1
    21   11   12 2
    22   13   18 ar
    23   13   14 ar
    24   14   15 ar
    25   14   20 1
    26   15   16 ar
    27   15   36 1
    28   16   17 ar
    29   16   37 1
    30   17   18 ar
    31   17   38 1
    32   18   19 1
    33   21   22 1
    34   21   39 1
    35   22   23 1
    36   22   40 1
    37   22   41 1
    38   23   24 1
    39   23   42 1
    40   23   43 1
    41   24   25 1
    42   24   44 1
    43   24   45 1
    44   25   29 1
    45   25   26 1
    46   26   27 2
    47   26   46 1
    48   27   28 1
    49   27   47 1
    50   28   29 2
    51   29   48 1
@<TRIPOS>MOLECULE
CHEMBL379108
   80    86     0     0     0
SMALL
USER_CHARGES

@<TRIPOS>ATOM
      1 C1         -0.0171    1.3968    0.0273 C.ar      1 <0>        -0.1382
      2 C2          1.1260    2.1268    0.0386 C.ar      1 <0>        -0.0334
      3 C3          2.3737    1.4691    0.0270 C.ar      1 <0>         0.0217
      4 C4          2.3913   -0.0020    0.0029 C.ar      1 <0>        -0.0376
      5 C5          1.1777   -0.7009   -0.0082 C.ar      1 <0>        -0.1766
      6 C6          0.0019   -0.0043    0.0043 C.ar      1 <0>         0.2221
      7 N1         -1.2071   -0.7041   -0.0064 N.pl3     1 <0>        -0.7420
      8 C7         -2.4767    0.0268    0.0063 C.3       1 <0>         0.1251
      9 C8         -3.6385   -0.9687   -0.0093 C.3       1 <0>        -0.0972
     10 C9         -3.6298   -1.7419   -1.3295 C.3       1 <0>        -0.1139
     11 C10        -4.7916   -2.7373   -1.3451 C.3       1 <0>        -0.1206
     12 C11        -6.1139   -1.9802   -1.2062 C.3       1 <0>        -0.1220
     13 C12        -6.1225   -1.2070    0.1140 C.3       1 <0>        -0.1196
     14 C13        -4.9607   -0.2115    0.1297 C.3       1 <0>        -0.1123
     15 C14         3.7513   -0.3345   -0.0034 C.2       1 <0>         0.0197
     16 N2          4.4326    0.8434    0.0155 N.pl3     1 <0>        -0.3414
     17 N3          3.6376    1.8521    0.0325 N.2       1 <0>        -0.2516
     18 H1          5.4002    0.9128    0.0160 H         1 <0>         0.4424
     19 C15         4.3271   -1.6835   -0.0251 C.2       1 <0>         0.3604
     20 N4          3.6361   -2.8017   -0.0479 N.2       1 <0>        -0.4522
     21 C16         4.4826   -3.8601   -0.0638 C.ar      1 <0>         0.0159
     22 C17         4.2839   -5.2453   -0.0892 C.ar      1 <0>        -0.0109
     23 C18         5.3574   -6.0885   -0.0999 C.ar      1 <0>        -0.1861
     24 C19         6.6565   -5.5835   -0.0854 C.ar      1 <0>         0.2271
     25 C20         6.8746   -4.2153   -0.0602 C.ar      1 <0>        -0.1991
     26 C21         5.7926   -3.3477   -0.0496 C.ar      1 <0>         0.1023
     27 N5          5.6705   -1.9708   -0.0307 N.pl3     1 <0>        -0.6083
     28 N6          7.7444   -6.4614   -0.0958 N.pl3     1 <0>        -0.6328
     29 C22         9.1178   -5.9504   -0.2028 C.3       1 <0>         0.1263
     30 C23         9.9462   -6.5167    0.9547 C.3       1 <0>        -0.1596
     31 C24         9.8418   -8.0435    0.9523 C.3       1 <0>         0.0277
     32 C25         8.3824   -8.4570    1.1553 C.3       1 <0>        -0.1595
     33 C26         7.5365   -7.9123    0.0062 C.3       1 <0>         0.1268
     34 N7         10.6617   -8.5918    2.0409 N.4       1 <0>        -0.3810
     35 C27        12.0600   -8.1885    1.8491 C.3       1 <0>        -0.0118
     36 C28        12.9046   -8.6886    3.0230 C.3       1 <0>        -0.1453
     37 C29        12.8173  -10.2159    3.0935 C.3       1 <0>        -0.1393
     38 C30        11.3478  -10.6281    3.2187 C.3       1 <0>        -0.1454
     39 C31        10.5608  -10.0562    2.0376 C.3       1 <0>        -0.0116
     40 H2         -0.9678    1.9092    0.0409 H         1 <0>         0.1328
     41 H3          1.0811    3.2057    0.0559 H         1 <0>         0.1366
     42 H4          1.1710   -1.7807   -0.0261 H         1 <0>         0.1338
     43 H5         -1.2060   -1.6740   -0.0223 H         1 <0>         0.4013
     44 H6         -2.5346    0.6387    0.9065 H         1 <0>         0.0615
     45 H7         -2.5357    0.6679   -0.8732 H         1 <0>         0.0618
     46 H8         -3.5303   -1.6664    0.8211 H         1 <0>         0.0764
     47 H9         -3.7380   -1.0442   -2.1599 H         1 <0>         0.0643
     48 H10        -2.6878   -2.2813   -1.4285 H         1 <0>         0.0616
     49 H11        -4.7855   -3.2882   -2.2857 H         1 <0>         0.0619
     50 H12        -4.6835   -3.4350   -0.5147 H         1 <0>         0.0609
     51 H13        -6.2220   -1.2825   -2.0366 H         1 <0>         0.0621
     52 H14        -6.9415   -2.6894   -1.2173 H         1 <0>         0.0615
     53 H15        -7.0645   -0.6676    0.2130 H         1 <0>         0.0640
     54 H16        -6.0143   -1.9047    0.9445 H         1 <0>         0.0617
     55 H17        -4.9669    0.3393    1.0702 H         1 <0>         0.0651
     56 H18        -5.0689    0.4862   -0.7007 H         1 <0>         0.0658
     57 H19         3.2814   -5.6470   -0.0999 H         1 <0>         0.1368
     58 H20         5.1987   -7.1566   -0.1195 H         1 <0>         0.1319
     59 H21         7.8821   -3.8265   -0.0494 H         1 <0>         0.1228
     60 H22         9.5521   -6.2656   -1.1515 H         1 <0>         0.0747
     61 H23         9.1080   -4.8618   -0.1468 H         1 <0>         0.1020
     62 H24        10.9889   -6.2231    0.8335 H         1 <0>         0.0978
     63 H25         9.5656   -6.1274    1.8990 H         1 <0>         0.0915
     64 H26        10.1995   -8.4304   -0.0018 H         1 <0>         0.1373
     65 H27         8.3120   -9.5445    1.1769 H         1 <0>         0.0995
     66 H28         8.0165   -8.0495    2.0977 H         1 <0>         0.0920
     67 H29         6.4838   -8.1179    0.2000 H         1 <0>         0.1057
     68 H30         7.8391   -8.3912   -0.9251 H         1 <0>         0.0745
     69 H31        12.4376   -8.6182    0.9213 H         1 <0>         0.1282
     70 H32        12.1201   -7.1015    1.7960 H         1 <0>         0.1308
     71 H33        13.9427   -8.3897    2.8778 H         1 <0>         0.1119
     72 H34        12.5280   -8.2593    3.9514 H         1 <0>         0.0868
     73 H35        13.2409  -10.6474    2.1866 H         1 <0>         0.0818
     74 H36        13.3713  -10.5730    3.9616 H         1 <0>         0.0943
     75 H37        11.2730  -11.7155    3.2135 H         1 <0>         0.1123
     76 H38        10.9388  -10.2390    4.1512 H         1 <0>         0.0870
     77 H39         9.5141  -10.3479    2.1236 H         1 <0>         0.1317
     78 H40        10.9704  -10.4460    1.1058 H         1 <0>         0.1283
     79 H41        10.3289   -8.2347    2.9240 H         1 <0>         0.4200
     80 H42         6.3970   -1.3282   -0.0208 H         1 <0>         0.4192
@<TRIPOS>BOND
     1    1    6 ar
     2    1    2 ar
     3    1   40 1
     4    2    3 ar
     5    2   41 1
     6    3    4 ar
     7    3   17 2
     8    4    5 ar
     9    4   15 2
    10    5    6 ar
    11    5   42 1
    12    6    7 1
    13    7    8 1
    14    7   43 1
    15    8    9 1
    16    8   44 1
    17    8   45 1
    18    9   14 1
    19    9   10 1
    20    9   46 1
    21   10   11 1
    22   10   47 1
    23   10   48 1
    24   11   12 1
    25   11   49 1
    26   11   50 1
    27   12   13 1
    28   12   51 1
    29   12   52 1
    30   13   14 1
    31   13   53 1
    32   13   54 1
    33   14   55 1
    34   14   56 1
    35   15   19 1
    36   15   16 1
    37   16   18 1
    38   16   17 1
    39   19   27 1
    40   19   20 2
    41   20   21 1
    42   21   26 ar
    43   21   22 ar
    44   22   23 ar
    45   22   57 1
    46   23   24 ar
    47   23   58 1
    48   24   25 ar
    49   24   28 1
    50   25   26 ar
    51   25   59 1
    52   26   27 1
    53   27   80 1
    54   28   33 1
    55   28   29 1
    56   29   30 1
    57   29   60 1
    58   29   61 1
    59   30   31 1
    60   30   62 1
    61   30   63 1
    62   31   32 1
    63   31   34 1
    64   31   64 1
    65   32   33 1
    66   32   65 1
    67   32   66 1
    68   33   67 1
    69   33   68 1
    70   34   39 1
    71   34   35 1
    72   34   79 1
    73   35   36 1
    74   35   69 1
    75   35   70 1
    76   36   37 1
    77   36   71 1
    78   36   72 1
    79   37   38 1
    80   37   73 1
    81   37   74 1
    82   38   39 1
    83   38   75 1
    84   38   76 1
    85   39   77 1
    86   39   78 1
@<TRIPOS>MOLECULE
CHEMBL379108__1
   80    86     0     0     0
SMALL
USER_CHARGES

@<TRIPOS>ATOM
      1 C1         -0.0169    1.3979   -0.0807 C.ar      1 <0>        -0.1402
      2 C2          1.1262    2.1279   -0.0732 C.ar      1 <0>        -0.0306
      3 C3          2.3739    1.4701   -0.0698 C.ar      1 <0>         0.0198
      4 C4          2.3915   -0.0013   -0.0747 C.ar      1 <0>        -0.0345
      5 C5          1.1779   -0.7001   -0.0829 C.ar      1 <0>        -0.1772
      6 C6          0.0020   -0.0035   -0.0854 C.ar      1 <0>         0.2232
      7 N1         -1.2068   -0.7032   -0.0927 N.pl3     1 <0>        -0.7419
      8 C7         -2.4763    0.0278   -0.0954 C.3       1 <0>         0.1248
      9 C8         -3.6381   -0.9677   -0.1034 C.3       1 <0>        -0.0969
     10 C9         -3.6234   -1.7581   -1.4134 C.3       1 <0>        -0.1136
     11 C10        -4.7852   -2.7536   -1.4215 C.3       1 <0>        -0.1199
     12 C11        -6.1080   -1.9947   -1.2986 C.3       1 <0>        -0.1222
     13 C12        -6.1227   -1.2043    0.0114 C.3       1 <0>        -0.1196
     14 C13        -4.9609   -0.2088    0.0195 C.3       1 <0>        -0.1128
     15 C14         3.7515   -0.3339   -0.0698 C.2       1 <0>         0.0134
     16 N2          4.4328    0.8443   -0.0628 N.pl3     1 <0>        -0.3386
     17 N3          3.6377    1.8530   -0.0629 N.2       1 <0>        -0.2465
     18 H1          5.4003    0.9137   -0.0585 H         1 <0>         0.4441
     19 C15         4.3271   -1.6830   -0.0714 C.2       1 <0>         0.3835
     20 N4          5.6690   -1.9699   -0.0609 N.pl3     1 <0>        -0.6045
     21 H2          6.3954   -1.3272   -0.0513 H         1 <0>         0.4209
     22 C16         5.7912   -3.3492   -0.0662 C.ar      1 <0>         0.0130
     23 C17         6.8748   -4.2156   -0.0613 C.ar      1 <0>        -0.0599
     24 C18         6.6669   -5.5784   -0.0700 C.ar      1 <0>        -0.1644
     25 C19         5.3722   -6.0942   -0.0843 C.ar      1 <0>         0.2023
     26 C20         4.2818   -5.2453   -0.0898 C.ar      1 <0>        -0.1512
     27 C21         4.4810   -3.8602   -0.0800 C.ar      1 <0>         0.1056
     28 N5          3.6356   -2.8020   -0.0774 N.2       1 <0>        -0.4748
     29 N6          5.1754   -7.4795   -0.0935 N.pl3     1 <0>        -0.6357
     30 C22         3.8232   -8.0441    0.0134 C.3       1 <0>         0.1264
     31 C23         3.5965   -9.0058   -1.1573 C.3       1 <0>        -0.1594
     32 C24         4.7143  -10.0509   -1.1776 C.3       1 <0>         0.0278
     33 C25         6.0623   -9.3547   -1.3785 C.3       1 <0>        -0.1593
     34 C26         6.3164   -8.3969   -0.2164 C.3       1 <0>         0.1286
     35 N7          4.4819  -10.9947   -2.2791 N.4       1 <0>        -0.3809
     36 C27         3.1855  -11.6564   -2.0892 C.3       1 <0>        -0.0119
     37 C28         2.9017  -12.5805   -3.2754 C.3       1 <0>        -0.1453
     38 C29         4.0068  -13.6365   -3.3687 C.3       1 <0>        -0.1392
     39 C30         5.3618  -12.9336   -3.4918 C.3       1 <0>        -0.1453
     40 C31         5.5545  -11.9965   -2.2976 C.3       1 <0>        -0.0116
     41 H3         -0.9675    1.9104   -0.0787 H         1 <0>         0.1329
     42 H4          1.0814    3.2069   -0.0701 H         1 <0>         0.1373
     43 H5          1.1713   -1.7801   -0.0870 H         1 <0>         0.1333
     44 H6         -1.2057   -1.6732   -0.0959 H         1 <0>         0.4004
     45 H7         -2.5384    0.6514    0.7965 H         1 <0>         0.0621
     46 H8         -2.5312    0.6574   -0.9834 H         1 <0>         0.0621
     47 H9         -3.5339   -1.6545    0.7365 H         1 <0>         0.0762
     48 H10        -3.7276   -1.0712   -2.2533 H         1 <0>         0.0645
     49 H11        -2.6810   -2.2987   -1.5010 H         1 <0>         0.0607
     50 H12        -4.7747   -3.3167   -2.3547 H         1 <0>         0.0608
     51 H13        -4.6809   -3.4404   -0.5816 H         1 <0>         0.0603
     52 H14        -6.2122   -1.3078   -2.1385 H         1 <0>         0.0624
     53 H15        -6.9357   -2.7039   -1.3043 H         1 <0>         0.0614
     54 H16        -7.0651   -0.6637    0.0990 H         1 <0>         0.0645
     55 H17        -6.0185   -1.8912    0.8513 H         1 <0>         0.0616
     56 H18        -4.9714    0.3543    0.9527 H         1 <0>         0.0658
     57 H19        -5.0652    0.4781   -0.8205 H         1 <0>         0.0661
     58 H20         7.8807   -3.8226   -0.0510 H         1 <0>         0.1280
     59 H21         7.5124   -6.2503   -0.0662 H         1 <0>         0.1318
     60 H22         3.2802   -5.6490   -0.1008 H         1 <0>         0.1304
     61 H23         3.7265   -8.5852    0.9547 H         1 <0>         0.0736
     62 H24         3.0875   -7.2408   -0.0259 H         1 <0>         0.1051
     63 H25         2.6345   -9.5042   -1.0377 H         1 <0>         0.0979
     64 H26         3.6034   -8.4474   -2.0934 H         1 <0>         0.0918
     65 H27         4.7225  -10.5922   -0.2316 H         1 <0>         0.1369
     66 H28         6.8553  -10.1015   -1.4163 H         1 <0>         0.0979
     67 H29         6.0460   -8.7930   -2.3125 H         1 <0>         0.0914
     68 H30         7.2252   -7.8262   -0.4073 H         1 <0>         0.1026
     69 H31         6.4276   -8.9673    0.7057 H         1 <0>         0.0728
     70 H32         3.2083  -12.2421   -1.1703 H         1 <0>         0.1281
     71 H33         2.4005  -10.9034   -2.0198 H         1 <0>         0.1317
     72 H34         1.9396  -13.0722   -3.1317 H         1 <0>         0.1119
     73 H35         2.8785  -11.9957   -4.1950 H         1 <0>         0.0869
     74 H36         3.9971  -14.2546   -2.4709 H         1 <0>         0.0816
     75 H37         3.8399  -14.2624   -4.2453 H         1 <0>         0.0939
     76 H38         6.1582  -13.6778   -3.5027 H         1 <0>         0.1117
     77 H39         5.3897  -12.3562   -4.4158 H         1 <0>         0.0868
     78 H40         6.5184  -11.4946   -2.3820 H         1 <0>         0.1311
     79 H41         5.5267  -12.5749   -1.3742 H         1 <0>         0.1280
     80 H42         4.4762  -10.4933   -3.1547 H         1 <0>         0.4199
@<TRIPOS>BOND
     1    1    6 ar
     2    1    2 ar
     3    1   41 1
     4    2    3 ar
     5    2   42 1
     6    3    4 ar
     7    3   17 2
     8    4    5 ar
     9    4   15 2
    10    5    6 ar
    11    5   43 1
    12    6    7 1
    13    7    8 1
    14    7   44 1
    15    8    9 1
    16    8   45 1
    17    8   46 1
    18    9   14 1
    19    9   10 1
    20    9   47 1
    21   10   11 1
    22   10   48 1
    23   10   49 1
    24   11   12 1
    25   11   50 1
    26   11   51 1
    27   12   13 1
    28   12   52 1
    29   12   53 1
    30   13   14 1
    31   13   54 1
    32   13   55 1
    33   14   56 1
    34   14   57 1
    35   15   19 1
    36   15   16 1
    37   16   18 1
    38   16   17 1
    39   19   28 2
    40   19   20 1
    41   20   21 1
    42   20   22 1
    43   22   27 ar
    44   22   23 ar
    45   23   24 ar
    46   23   58 1
    47   24   25 ar
    48   24   59 1
    49   25   26 ar
    50   25   29 1
    51   26   27 ar
    52   26   60 1
    53   27   28 1
    54   29   34 1
    55   29   30 1
    56   30   31 1
    57   30   61 1
    58   30   62 1
    59   31   32 1
    60   31   63 1
    61   31   64 1
    62   32   33 1
    63   32   35 1
    64   32   65 1
    65   33   34 1
    66   33   66 1
    67   33   67 1
    68   34   68 1
    69   34   69 1
    70   35   40 1
    71   35   36 1
    72   35   80 1
    73   36   37 1
    74   36   70 1
    75   36   71 1
    76   37   38 1
    77   37   72 1
    78   37   73 1
    79   38   39 1
    80   38   74 1
    81   38   75 1
    82   39   40 1
    83   39   76 1
    84   39   77 1
    85   40   78 1
    86   40   79 1
@<TRIPOS>MOLECULE
CHEMBL379108__2
   80    86     0     0     0
SMALL
USER_CHARGES

@<TRIPOS>ATOM
      1 C1         -0.0168    1.3911   -0.0823 C.ar      1 <0>        -0.1268
      2 C2          1.1476    2.1042   -0.0751 C.ar      1 <0>        -0.0919
      3 C3          2.3724    1.4413   -0.0717 C.ar      1 <0>         0.0764
      4 C4          2.4017    0.0352   -0.0756 C.ar      1 <0>        -0.0869
      5 C5          1.2049   -0.6841   -0.0830 C.ar      1 <0>        -0.1244
      6 C6          0.0020   -0.0035   -0.0862 C.ar      1 <0>         0.1890
      7 N1         -1.2016   -0.7164   -0.0935 N.pl3     1 <0>        -0.7465
      8 C7         -2.4784    0.0020   -0.0970 C.3       1 <0>         0.1284
      9 C8         -3.6302   -1.0051   -0.1050 C.3       1 <0>        -0.0966
     10 C9         -3.6071   -1.7959   -1.4145 C.3       1 <0>        -0.1132
     11 C10        -4.7589   -2.8030   -1.4224 C.3       1 <0>        -0.1199
     12 C11        -6.0893   -2.0573   -1.3004 C.3       1 <0>        -0.1221
     13 C12        -6.1123   -1.2665    0.0092 C.3       1 <0>        -0.1196
     14 C13        -4.9605   -0.2594    0.0171 C.3       1 <0>        -0.1128
     15 C14         3.8187   -0.3484   -0.0706 C.2       1 <0>         0.1322
     16 N2          4.5276    0.7573   -0.0642 N.2       1 <0>        -0.2199
     17 N3          3.6782    1.8681   -0.0647 N.pl3     1 <0>        -0.4871
     18 H1          3.9658    2.7945   -0.0611 H         1 <0>         0.4460
     19 C15         4.3498   -1.7255   -0.0722 C.2       1 <0>         0.3800
     20 N4          5.6782   -2.0574   -0.0619 N.pl3     1 <0>        -0.5834
     21 H2          6.4260   -1.4397   -0.0526 H         1 <0>         0.4297
     22 C16         5.7540   -3.4394   -0.0672 C.ar      1 <0>         0.0158
     23 C17         6.8074   -4.3430   -0.0621 C.ar      1 <0>        -0.0589
     24 C18         6.5523   -5.6973   -0.0706 C.ar      1 <0>        -0.1610
     25 C19         5.2403   -6.1678   -0.0843 C.ar      1 <0>         0.2004
     26 C20         4.1802   -5.2814   -0.0895 C.ar      1 <0>        -0.1484
     27 C21         4.4274   -3.9046   -0.0809 C.ar      1 <0>         0.1005
     28 N5          3.6202   -2.8158   -0.0781 N.2       1 <0>        -0.4707
     29 N6          4.9954   -7.5453   -0.0933 N.pl3     1 <0>        -0.6358
     30 C22         3.6244   -8.0626    0.0143 C.3       1 <0>         0.1265
     31 C23         3.3638   -9.0159   -1.1562 C.3       1 <0>        -0.1594
     32 C24         4.4446  -10.0993   -1.1768 C.3       1 <0>         0.0277
     33 C25         5.8159   -9.4505   -1.3783 C.3       1 <0>        -0.1593
     34 C26         6.1037   -8.5020   -0.2165 C.3       1 <0>         0.1286
     35 N7          4.1790  -11.0346   -2.2781 N.4       1 <0>        -0.3809
     36 C27         2.8605  -11.6507   -2.0876 C.3       1 <0>        -0.0119
     37 C28         2.5442  -12.5645   -3.2735 C.3       1 <0>        -0.1453
     38 C29         3.6118  -13.6584   -3.3671 C.3       1 <0>        -0.1392
     39 C30         4.9904  -13.0032   -3.4908 C.3       1 <0>        -0.1453
     40 C31         5.2161  -12.0731   -2.2968 C.3       1 <0>        -0.0116
     41 H3         -0.9626    1.9126   -0.0804 H         1 <0>         0.1325
     42 H4          1.1187    3.1838   -0.0724 H         1 <0>         0.1314
     43 H5          1.2191   -1.7640   -0.0864 H         1 <0>         0.1380
     44 H6         -1.1908   -1.6863   -0.0963 H         1 <0>         0.3995
     45 H7         -2.5470    0.6254    0.7945 H         1 <0>         0.0598
     46 H8         -2.5392    0.6305   -0.9855 H         1 <0>         0.0598
     47 H9         -3.5194   -1.6904    0.7354 H         1 <0>         0.0761
     48 H10        -3.7179   -1.1106   -2.2548 H         1 <0>         0.0641
     49 H11        -2.6593   -2.3272   -1.5015 H         1 <0>         0.0609
     50 H12        -4.7425   -3.3665   -2.3554 H         1 <0>         0.0608
     51 H13        -4.6481   -3.4884   -0.5821 H         1 <0>         0.0604
     52 H14        -6.2001   -1.3720   -2.1407 H         1 <0>         0.0623
     53 H15        -6.9098   -2.7748   -1.3060 H         1 <0>         0.0614
     54 H16        -7.0601   -0.7352    0.0962 H         1 <0>         0.0644
     55 H17        -6.0015   -1.9518    0.8495 H         1 <0>         0.0617
     56 H18        -4.9769    0.3041    0.9501 H         1 <0>         0.0654
     57 H19        -5.0713    0.4260   -0.8232 H         1 <0>         0.0657
     58 H20         7.8263   -3.9851   -0.0519 H         1 <0>         0.1296
     59 H21         7.3739   -6.3983   -0.0670 H         1 <0>         0.1322
     60 H22         3.1651   -5.6500   -0.0997 H         1 <0>         0.1305
     61 H23         3.5093   -8.5998    0.9557 H         1 <0>         0.0734
     62 H24         2.9171   -7.2341   -0.0248 H         1 <0>         0.1052
     63 H25         2.3852   -9.4806   -1.0361 H         1 <0>         0.0976
     64 H26         3.3899   -8.4582   -2.0924 H         1 <0>         0.0919
     65 H27         4.4343  -10.6404   -0.2307 H         1 <0>         0.1368
     66 H28         6.5825  -10.2245   -1.4163 H         1 <0>         0.0977
     67 H29         5.8189   -8.8887   -2.3124 H         1 <0>         0.0916
     68 H30         7.0318   -7.9633   -0.4078 H         1 <0>         0.1028
     69 H31         6.1953   -9.0758    0.7057 H         1 <0>         0.0727
     70 H32         2.8632  -12.2368   -1.1685 H         1 <0>         0.1280
     71 H33         2.1022  -10.8709   -2.0180 H         1 <0>         0.1317
     72 H34         1.5656  -13.0224   -3.1293 H         1 <0>         0.1118
     73 H35         2.5410  -11.9794   -4.1931 H         1 <0>         0.0868
     74 H36         3.5809  -14.2756   -2.4692 H         1 <0>         0.0816
     75 H37         3.4229  -14.2782   -4.2436 H         1 <0>         0.0938
     76 H38         5.7604  -13.7746   -3.5019 H         1 <0>         0.1117
     77 H39         5.0380  -12.4271   -4.4149 H         1 <0>         0.0868
     78 H40         6.1969  -11.6051   -2.3817 H         1 <0>         0.1313
     79 H41         5.1686  -12.6501   -1.3733 H         1 <0>         0.1280
     80 H42         4.1905  -10.5334   -3.1537 H         1 <0>         0.4199
@<TRIPOS>BOND
     1    1    6 ar
     2    1    2 ar
     3    1   41 1
     4    2    3 ar
     5    2   42 1
     6    3   17 1
     7    3    4 ar
     8    4    5 ar
     9    4   15 1
    10    5    6 ar
    11    5   43 1
    12    6    7 1
    13    7    8 1
    14    7   44 1
    15    8    9 1
    16    8   45 1
    17    8   46 1
    18    9   14 1
    19    9   10 1
    20    9   47 1
    21   10   11 1
    22   10   48 1
    23   10   49 1
    24   11   12 1
    25   11   50 1
    26   11   51 1
    27   12   13 1
    28   12   52 1
    29   12   53 1
    30   13   14 1
    31   13   54 1
    32   13   55 1
    33   14   56 1
    34   14   57 1
    35   15   16 2
    36   15   19 1
    37   16   17 1
    38   17   18 1
    39   19   28 2
    40   19   20 1
    41   20   21 1
    42   20   22 1
    43   22   27 ar
    44   22   23 ar
    45   23   24 ar
    46   23   58 1
    47   24   25 ar
    48   24   59 1
    49   25   26 ar
    50   25   29 1
    51   26   27 ar
    52   26   60 1
    53   27   28 1
    54   29   34 1
    55   29   30 1
    56   30   31 1
    57   30   61 1
    58   30   62 1
    59   31   32 1
    60   31   63 1
    61   31   64 1
    62   32   33 1
    63   32   35 1
    64   32   65 1
    65   33   34 1
    66   33   66 1
    67   33   67 1
    68   34   68 1
    69   34   69 1
    70   35   40 1
    71   35   36 1
    72   35   80 1
    73   36   37 1
    74   36   70 1
    75   36   71 1
    76   37   38 1
    77   37   72 1
    78   37   73 1
    79   38   39 1
    80   38   74 1
    81   38   75 1
    82   39   40 1
    83   39   76 1
    84   39   77 1
    85   40   78 1
    86   40   79 1
@<TRIPOS>MOLECULE
CHEMBL320382
   57    60     0     0     0
SMALL
USER_CHARGES

@<TRIPOS>ATOM
      1 C1         -0.0178    1.4608    0.0101 C.3       1 <0>         0.0606
      2 N1          0.0021   -0.0041    0.0020 N.am      1 <0>        -0.5209
      3 C2         -1.1832   -0.7026    0.0039 C.ar      1 <0>         0.2720
      4 C3         -2.4056   -0.0412    0.0132 C.ar      1 <0>        -0.2975
      5 C4         -3.5734   -0.7908    0.0143 C.ar      1 <0>         0.4469
      6 N2         -3.5407   -2.1192    0.0065 N.ar      1 <0>        -0.5582
      7 C5         -2.4109   -2.7924   -0.0026 C.ar      1 <0>         0.2352
      8 C6         -1.1855   -2.1147   -0.0043 C.ar      1 <0>        -0.2413
      9 C7          0.0397   -2.8227   -0.0135 C.2       1 <0>         0.0313
     10 C8          1.2142   -2.1207   -0.0144 C.2       1 <0>        -0.1734
     11 C9          1.1810   -0.6564   -0.0127 C.2       1 <0>         0.5536
     12 O1          2.2233   -0.0259   -0.0189 O.2       1 <0>        -0.5154
     13 C10         2.5110   -2.8371   -0.0239 C.ar      1 <0>        -0.0060
     14 C11         3.1266   -3.1880    1.1783 C.ar      1 <0>        -0.0080
     15 C12         4.3355   -3.8557    1.1624 C.ar      1 <0>        -0.1071
     16 C13         4.9362   -4.1763   -0.0417 C.ar      1 <0>        -0.0897
     17 C14         4.3313   -3.8315   -1.2369 C.ar      1 <0>        -0.1069
     18 C15         3.1193   -3.1691   -1.2351 C.ar      1 <0>        -0.0079
     19 Cl1         2.3582   -2.7435   -2.7362 Cl        1 <0>        -0.0509
     20 Cl2         2.3749   -2.7855    2.6904 Cl        1 <0>        -0.0510
     21 N3         -4.7988   -0.1407    0.0241 N.pl3     1 <0>        -0.7138
     22 C16        -4.8513    1.3233    0.0332 C.3       1 <0>         0.1239
     23 C17        -6.3112    1.7812    0.0430 C.3       1 <0>        -0.1305
     24 C18        -6.3660    3.3102    0.0525 C.3       1 <0>        -0.1127
     25 C19        -7.8258    3.7681    0.0622 C.3       1 <0>         0.0552
     26 N4         -7.8785    5.2362    0.0714 N.3       1 <0>        -0.5381
     27 C20        -7.3415    5.7748    1.3295 C.3       1 <0>         0.0140
     28 C21        -7.3598    7.3046    1.2725 C.3       1 <0>         0.0621
     29 O2         -8.6944    7.7512    1.0183 O.3       1 <0>        -0.3853
     30 C22        -9.2485    7.2460   -0.1996 C.3       1 <0>         0.0626
     31 C23        -9.2492    5.7156   -0.1575 C.3       1 <0>         0.0169
     32 H1          1.0048    1.8381    0.0023 H         1 <0>         0.1037
     33 H2         -0.5450    1.8219   -0.8730 H         1 <0>         0.0772
     34 H3         -0.5280    1.8123    0.9069 H         1 <0>         0.0770
     35 H4         -2.4459    1.0381    0.0200 H         1 <0>         0.1416
     36 H5         -2.4284   -3.8722   -0.0087 H         1 <0>         0.1733
     37 H6          0.0476   -3.9026   -0.0194 H         1 <0>         0.1446
     38 H7          4.8130   -4.1278    2.0921 H         1 <0>         0.1428
     39 H8          5.8819   -4.6979   -0.0486 H         1 <0>         0.1445
     40 H9          4.8055   -4.0847   -2.1736 H         1 <0>         0.1428
     41 H10        -5.6209   -0.6556    0.0249 H         1 <0>         0.4095
     42 H11        -4.3466    1.6994    0.9231 H         1 <0>         0.0674
     43 H12        -4.3551    1.7102   -0.8568 H         1 <0>         0.0690
     44 H13        -6.8159    1.4051   -0.8469 H         1 <0>         0.0742
     45 H14        -6.8074    1.3943    0.9330 H         1 <0>         0.0717
     46 H15        -5.8613    3.6863    0.9424 H         1 <0>         0.0669
     47 H16        -5.8698    3.6971   -0.8375 H         1 <0>         0.0768
     48 H17        -8.3305    3.3920   -0.8276 H         1 <0>         0.0779
     49 H18        -8.3220    3.3812    0.9523 H         1 <0>         0.0367
     50 H19        -7.9559    5.4342    2.1629 H         1 <0>         0.0433
     51 H20        -6.3172    5.4279    1.4661 H         1 <0>         0.0889
     52 H21        -7.0160    7.7084    2.2247 H         1 <0>         0.0988
     53 H22        -6.7030    7.6469    0.4728 H         1 <0>         0.0605
     54 H23       -10.2706    7.6076   -0.3120 H         1 <0>         0.0994
     55 H24        -8.6465    7.5866   -1.0421 H         1 <0>         0.0608
     56 H25        -9.6176    5.3256   -1.1063 H         1 <0>         0.0873
     57 H26        -9.8942    5.3741    0.6521 H         1 <0>         0.0436
@<TRIPOS>BOND
     1    1    2 1
     2    1   32 1
     3    1   33 1
     4    1   34 1
     5    2   11 am
     6    2    3 1
     7    3    8 ar
     8    3    4 ar
     9    4    5 ar
    10    4   35 1
    11    5    6 ar
    12    5   21 1
    13    6    7 ar
    14    7    8 ar
    15    7   36 1
    16    8    9 1
    17    9   10 2
    18    9   37 1
    19   10   11 1
    20   10   13 1
    21   11   12 2
    22   13   18 ar
    23   13   14 ar
    24   14   15 ar
    25   14   20 1
    26   15   16 ar
    27   15   38 1
    28   16   17 ar
    29   16   39 1
    30   17   18 ar
    31   17   40 1
    32   18   19 1
    33   21   22 1
    34   21   41 1
    35   22   23 1
    36   22   42 1
    37   22   43 1
    38   23   24 1
    39   23   44 1
    40   23   45 1
    41   24   25 1
    42   24   46 1
    43   24   47 1
    44   25   26 1
    45   25   48 1
    46   25   49 1
    47   26   31 1
    48   26   27 1
    49   27   28 1
    50   27   50 1
    51   27   51 1
    52   28   29 1
    53   28   52 1
    54   28   53 1
    55   29   30 1
    56   30   31 1
    57   30   54 1
    58   30   55 1
    59   31   56 1
    60   31   57 1
@<TRIPOS>MOLECULE
CHEMBL320382__1
   58    61     0     0     0
SMALL
USER_CHARGES

@<TRIPOS>ATOM
      1 C1         -0.0178    1.4608    0.0101 C.3       1 <0>         0.0619
      2 N1          0.0021   -0.0041    0.0020 N.am      1 <0>        -0.5220
      3 C2         -1.1832   -0.7026    0.0039 C.ar      1 <0>         0.2708
      4 C3         -2.4056   -0.0412    0.0132 C.ar      1 <0>        -0.2961
      5 C4         -3.5734   -0.7908    0.0143 C.ar      1 <0>         0.4418
      6 N2         -3.5407   -2.1192    0.0065 N.ar      1 <0>        -0.5562
      7 C5         -2.4109   -2.7924   -0.0026 C.ar      1 <0>         0.2359
      8 C6         -1.1855   -2.1147   -0.0043 C.ar      1 <0>        -0.2311
      9 C7          0.0397   -2.8227   -0.0135 C.2       1 <0>         0.0235
     10 C8          1.2142   -2.1207   -0.0144 C.2       1 <0>        -0.1605
     11 C9          1.1810   -0.6564   -0.0127 C.2       1 <0>         0.5519
     12 O1          2.2233   -0.0259   -0.0189 O.2       1 <0>        -0.5083
     13 C10         2.5110   -2.8371   -0.0239 C.ar      1 <0>        -0.0132
     14 C11         3.1266   -3.1880    1.1783 C.ar      1 <0>        -0.0072
     15 C12         4.3355   -3.8557    1.1624 C.ar      1 <0>        -0.1057
     16 C13         4.9362   -4.1763   -0.0417 C.ar      1 <0>        -0.0862
     17 C14         4.3313   -3.8315   -1.2369 C.ar      1 <0>        -0.1056
     18 C15         3.1193   -3.1691   -1.2351 C.ar      1 <0>        -0.0071
     19 Cl1         2.3582   -2.7435   -2.7362 Cl        1 <0>        -0.0518
     20 Cl2         2.3749   -2.7855    2.6904 Cl        1 <0>        -0.0518
     21 N3         -4.7988   -0.1407    0.0241 N.pl3     1 <0>        -0.7211
     22 C16        -4.8513    1.3233    0.0332 C.3       1 <0>         0.1261
     23 C17        -6.3112    1.7812    0.0430 C.3       1 <0>        -0.1303
     24 C18        -6.3660    3.3102    0.0525 C.3       1 <0>        -0.1461
     25 C19        -7.8258    3.7681    0.0622 C.3       1 <0>        -0.0090
     26 N4         -7.8785    5.2362    0.0714 N.4       1 <0>        -0.3859
     27 C20        -7.3059    5.7391    1.3277 C.3       1 <0>        -0.0486
     28 C21        -7.3617    7.2688    1.3347 C.3       1 <0>         0.0357
     29 O2         -8.7179    7.6920    1.1689 O.3       1 <0>        -0.3562
     30 C22        -9.3279    7.2068   -0.0305 C.3       1 <0>         0.0353
     31 C23        -9.2757    5.6770   -0.0400 C.3       1 <0>        -0.0435
     32 H1          1.0048    1.8381    0.0023 H         1 <0>         0.1052
     33 H2         -0.5450    1.8219   -0.8730 H         1 <0>         0.0750
     34 H3         -0.5280    1.8123    0.9069 H         1 <0>         0.0751
     35 H4         -2.4459    1.0381    0.0200 H         1 <0>         0.1385
     36 H5         -2.4284   -3.8722   -0.0087 H         1 <0>         0.1764
     37 H6          0.0476   -3.9026   -0.0194 H         1 <0>         0.1476
     38 H7          4.8130   -4.1278    2.0921 H         1 <0>         0.1445
     39 H8          5.8819   -4.6979   -0.0486 H         1 <0>         0.1466
     40 H9          4.8055   -4.0847   -2.1736 H         1 <0>         0.1444
     41 H10        -5.6209   -0.6556    0.0249 H         1 <0>         0.4103
     42 H11        -4.3466    1.6994    0.9231 H         1 <0>         0.0689
     43 H12        -4.3551    1.7102   -0.8568 H         1 <0>         0.0692
     44 H13        -6.8159    1.4051   -0.8469 H         1 <0>         0.0853
     45 H14        -6.8074    1.3943    0.9330 H         1 <0>         0.0850
     46 H15        -5.8613    3.6863    0.9424 H         1 <0>         0.0915
     47 H16        -5.8698    3.6971   -0.8375 H         1 <0>         0.0923
     48 H17        -8.3305    3.3920   -0.8276 H         1 <0>         0.1348
     49 H18        -8.3220    3.3812    0.9523 H         1 <0>         0.1327
     50 H19        -7.8788    5.3505    2.1697 H         1 <0>         0.1398
     51 H20        -6.2693    5.4127    1.4113 H         1 <0>         0.1432
     52 H21        -6.9772    7.6428    2.2836 H         1 <0>         0.1423
     53 H22        -6.7561    7.6589    0.5167 H         1 <0>         0.0815
     54 H23       -10.3663    7.5359   -0.0696 H         1 <0>         0.1427
     55 H24        -8.7896    7.5948   -0.8952 H         1 <0>         0.0816
     56 H25        -9.7014    5.3045   -0.9717 H         1 <0>         0.1432
     57 H26        -9.8479    5.2885    0.8025 H         1 <0>         0.1394
     58 H27        -7.3487    5.5967   -0.7080 H         1 <0>         0.4233
@<TRIPOS>BOND
     1    1    2 1
     2    1   32 1
     3    1   33 1
     4    1   34 1
     5    2   11 am
     6    2    3 1
     7    3    8 ar
     8    3    4 ar
     9    4    5 ar
    10    4   35 1
    11    5    6 ar
    12    5   21 1
    13    6    7 ar
    14    7    8 ar
    15    7   36 1
    16    8    9 1
    17    9   10 2
    18    9   37 1
    19   10   11 1
    20   10   13 1
    21   11   12 2
    22   13   18 ar
    23   13   14 ar
    24   14   15 ar
    25   14   20 1
    26   15   16 ar
    27   15   38 1
    28   16   17 ar
    29   16   39 1
    30   17   18 ar
    31   17   40 1
    32   18   19 1
    33   21   22 1
    34   21   41 1
    35   22   23 1
    36   22   42 1
    37   22   43 1
    38   23   24 1
    39   23   44 1
    40   23   45 1
    41   24   25 1
    42   24   46 1
    43   24   47 1
    44   25   26 1
    45   25   48 1
    46   25   49 1
    47   26   31 1
    48   26   27 1
    49   26   58 1
    50   27   28 1
    51   27   50 1
    52   27   51 1
    53   28   29 1
    54   28   52 1
    55   28   53 1
    56   29   30 1
    57   30   31 1
    58   30   54 1
    59   30   55 1
    60   31   56 1
    61   31   57 1
@<TRIPOS>MOLECULE
CHEMBL1092754
   55    59     0     0     0
SMALL
USER_CHARGES

@<TRIPOS>ATOM
      1 C1         -0.4192    1.4159    0.0566 C.3       1 <0>         0.0727
      2 N1         -0.1016   -0.0136    0.0117 N.pl3     1 <0>        -0.4581
      3 C2         -0.1908   -0.7897   -1.0975 C.2       1 <0>         0.1293
      4 C3          0.1811   -2.0806   -0.7851 C.2       1 <0>        -0.1757
      5 C4          0.5246   -2.0730    0.6464 C.ar      1 <0>        -0.1106
      6 C5          0.3345   -0.7539    1.0889 C.ar      1 <0>         0.2836
      7 N2          0.5756   -0.4422    2.3559 N.ar      1 <0>        -0.4889
      8 C6          0.9961   -1.3357    3.2271 C.ar      1 <0>         0.1395
      9 C7          1.2113   -2.6536    2.8696 C.ar      1 <0>        -0.1753
     10 C8          0.9674   -3.0495    1.5523 C.ar      1 <0>         0.0341
     11 C9          1.1853   -4.4499    1.1217 C.ar      1 <0>        -0.0286
     12 C10         2.0507   -4.7273    0.0624 C.ar      1 <0>        -0.1099
     13 C11         2.2540   -6.0285   -0.3381 C.ar      1 <0>        -0.0524
     14 C12         1.5938   -7.0716    0.3161 C.ar      1 <0>        -0.1250
     15 C13         0.7278   -6.7932    1.3763 C.ar      1 <0>        -0.0829
     16 C14         0.5295   -5.4919    1.7792 C.ar      1 <0>        -0.1062
     17 C15         1.8112   -8.4684   -0.1135 C.2       1 <0>         0.5568
     18 O1          2.5646   -8.7103   -1.0364 O.2       1 <0>        -0.5309
     19 N3          1.1742   -9.4745    0.5179 N.am      1 <0>        -0.7213
     20 C16         1.3896  -10.8595    0.0919 C.3       1 <0>         0.1186
     21 C17         0.5549  -11.7976    0.9660 C.3       1 <0>         0.0626
     22 O2         -0.8340  -11.5455    0.7439 O.3       1 <0>        -0.5715
     23 C18         0.2253   -3.2260   -1.6930 C.2       1 <0>         0.0485
     24 C19         0.1951   -3.0287   -3.0404 C.2       1 <0>        -0.0763
     25 C20         0.2260   -4.0478   -4.0299 C.2       1 <0>         0.4132
     26 O3          0.2838   -5.2531   -3.8509 O.2       1 <0>        -0.4176
     27 C21         0.1722   -3.3362   -5.3178 C.ar      1 <0>        -0.2958
     28 C22         0.1703   -3.7556   -6.6523 C.ar      1 <0>         0.2182
     29 C23         0.1107   -2.8116   -7.6645 C.ar      1 <0>        -0.1883
     30 C24         0.0541   -1.4640   -7.3536 C.ar      1 <0>        -0.0320
     31 C25         0.0556   -1.0416   -6.0394 C.ar      1 <0>        -0.1507
     32 C26         0.1143   -1.9689   -5.0062 C.ar      1 <0>         0.1544
     33 O4          0.1245   -1.8283   -3.6631 O.3       1 <0>        -0.2160
     34 O5          0.2268   -5.0776   -6.9532 O.3       1 <0>        -0.4871
     35 H1          0.4758    1.9943   -0.1727 H         1 <0>         0.0780
     36 H2         -1.1939    1.6391   -0.6770 H         1 <0>         0.0891
     37 H3         -0.7758    1.6778    1.0527 H         1 <0>         0.0928
     38 H4         -0.5048   -0.4497   -2.0733 H         1 <0>         0.1919
     39 H5          1.1779   -1.0309    4.2472 H         1 <0>         0.1673
     40 H6          1.5571   -3.3692    3.6007 H         1 <0>         0.1443
     41 H7          2.5606   -3.9208   -0.4435 H         1 <0>         0.1325
     42 H8          2.9234   -6.2430   -1.1581 H         1 <0>         0.1416
     43 H9          0.2171   -7.5991    1.8825 H         1 <0>         0.1302
     44 H10        -0.1368   -5.2768    2.6015 H         1 <0>         0.1342
     45 H11         0.5730   -9.2814    1.2543 H         1 <0>         0.4025
     46 H12         1.0890  -10.9702   -0.9499 H         1 <0>         0.0784
     47 H13         2.4453  -11.1110    0.1942 H         1 <0>         0.0851
     48 H14         0.7821  -12.8321    0.7087 H         1 <0>         0.0662
     49 H15         0.7925  -11.6237    2.0155 H         1 <0>         0.0542
     50 H16        -1.4240  -12.1058    1.2666 H         1 <0>         0.3839
     51 H17         0.2820   -4.2285   -1.2952 H         1 <0>         0.1649
     52 H18         0.1088   -3.1275   -8.6973 H         1 <0>         0.1431
     53 H19         0.0086   -0.7344   -8.1485 H         1 <0>         0.1466
     54 H20         0.0111    0.0135   -5.8133 H         1 <0>         0.1410
     55 H21        -0.6392   -5.5017   -7.0263 H         1 <0>         0.4016
@<TRIPOS>BOND
     1    1    2 1
     2    1   35 1
     3    1   36 1
     4    1   37 1
     5    2    6 1
     6    2    3 1
     7    3    4 2
     8    3   38 1
     9    4    5 1
    10    4   23 1
    11    5   10 ar
    12    5    6 ar
    13    6    7 ar
    14    7    8 ar
    15    8    9 ar
    16    8   39 1
    17    9   10 ar
    18    9   40 1
    19   10   11 1
    20   11   16 ar
    21   11   12 ar
    22   12   13 ar
    23   12   41 1
    24   13   14 ar
    25   13   42 1
    26   14   15 ar
    27   14   17 1
    28   15   16 ar
    29   15   43 1
    30   16   44 1
    31   17   18 2
    32   17   19 am
    33   19   20 1
    34   19   45 1
    35   20   21 1
    36   20   46 1
    37   20   47 1
    38   21   22 1
    39   21   48 1
    40   21   49 1
    41   22   50 1
    42   23   24 2
    43   23   51 1
    44   24   33 1
    45   24   25 1
    46   25   26 2
    47   25   27 1
    48   27   32 ar
    49   27   28 ar
    50   28   29 ar
    51   28   34 1
    52   29   30 ar
    53   29   52 1
    54   30   31 ar
    55   30   53 1
    56   31   32 ar
    57   31   54 1
    58   32   33 1
    59   34   55 1
@<TRIPOS>MOLECULE
CHEMBL298566
   71    75     0     0     0
SMALL
USER_CHARGES

@<TRIPOS>ATOM
      1 C1          1.1239    1.8824    1.0915 C.3       1 <0>        -0.1523
      2 C2          0.9416    0.5130    0.4338 C.3       1 <0>        -0.6069
      3 S1          0.8294   -0.7640    1.7173 S.o2      1 <0>         2.4986
      4 O1          2.0774   -0.8998    2.3831 O.2       1 <0>        -0.9393
      5 O2         -0.3736   -0.6094    2.4576 O.2       1 <0>        -0.9289
      6 C3          0.6236   -2.2755    0.8354 C.ar      1 <0>        -0.6829
      7 C4         -0.6484   -2.7247    0.5205 C.ar      1 <0>         0.0152
      8 C5         -0.8260   -3.9064   -0.1697 C.ar      1 <0>        -0.1510
      9 C6          0.2763   -4.6608   -0.5569 C.ar      1 <0>         0.1988
     10 C7          1.5616   -4.2029   -0.2365 C.ar      1 <0>        -0.1231
     11 C8          1.7299   -3.0071    0.4544 C.ar      1 <0>         0.0307
     12 C9          2.5075   -5.2057   -0.7744 C.2       1 <0>        -0.1886
     13 C10         3.8871   -5.1839   -0.7009 C.2       1 <0>         0.0662
     14 C11         4.6338   -6.3004   -1.1304 C.2       1 <0>        -0.0082
     15 C12         5.8848   -6.2698   -1.7312 C.2       1 <0>        -0.1065
     16 C13         6.2441   -7.5883   -1.9869 C.2       1 <0>        -0.1662
     17 C14         5.2360   -8.3940   -1.5527 C.2       1 <0>         0.0760
     18 N1          4.2572   -7.6238   -1.0249 N.pl3     1 <0>        -0.4998
     19 H1          3.4284   -7.9474   -0.6387 H         1 <0>         0.4221
     20 C15         5.2576   -9.9004   -1.6615 C.3       1 <0>        -0.0618
     21 C16         6.3389  -10.2975   -2.6732 C.3       1 <0>        -0.1145
     22 C17         7.6500   -9.5869   -2.3268 C.3       1 <0>        -0.1214
     23 C18         7.5145   -8.0893   -2.6280 C.3       1 <0>        -0.0446
     24 C19         6.6984   -5.0411   -2.0468 C.3       1 <0>        -0.0435
     25 C20         7.5993   -4.7064   -0.8563 C.3       1 <0>        -0.1454
     26 C21         8.4253   -3.4591   -1.1766 C.3       1 <0>        -0.0121
     27 N2          9.2903   -3.1377   -0.0336 N.4       1 <0>        -0.3853
     28 C22         8.4590   -2.7772    1.1211 C.3       1 <0>        -0.0084
     29 C23         9.3519   -2.5202    2.3369 C.3       1 <0>        -0.1439
     30 C24        10.3160   -1.3727    2.0218 C.3       1 <0>         0.0961
     31 C25        11.1259   -1.7282    0.7717 C.3       1 <0>        -0.1839
     32 C26        10.1672   -2.0146   -0.3861 C.3       1 <0>        -0.0025
     33 O3         11.2022   -1.1765    3.1256 O.3       1 <0>        -0.5531
     34 C27         1.6625   -6.2295   -1.4024 C.2       1 <0>         0.5564
     35 O4          2.0560   -7.2351   -1.9664 O.2       1 <0>        -0.4992
     36 N3          0.3791   -5.8626   -1.2464 N.am      1 <0>        -0.6500
     37 H2          2.0384    1.8819    1.6844 H         1 <0>         0.0735
     38 H3          1.1913    2.6497    0.3203 H         1 <0>         0.0868
     39 H4          0.2716    2.0912    1.7382 H         1 <0>         0.0772
     40 H5          0.0271    0.5135   -0.1592 H         1 <0>         0.1376
     41 H6          1.7939    0.3043   -0.2129 H         1 <0>         0.1330
     42 H7         -1.5094   -2.1448    0.8184 H         1 <0>         0.1546
     43 H8         -1.8227   -4.2462   -0.4093 H         1 <0>         0.1434
     44 H9          2.7221   -2.6551    0.6953 H         1 <0>         0.1446
     45 H10         4.3936   -4.3118   -0.3146 H         1 <0>         0.1504
     46 H11         5.4875  -10.3353   -0.6889 H         1 <0>         0.0823
     47 H12         4.2861  -10.2576   -2.0034 H         1 <0>         0.0803
     48 H13         6.4903  -11.3763   -2.6382 H         1 <0>         0.0752
     49 H14         6.0226  -10.0077   -3.6753 H         1 <0>         0.0694
     50 H15         7.8702   -9.7262   -1.2684 H         1 <0>         0.0644
     51 H16         8.4594  -10.0060   -2.9245 H         1 <0>         0.0697
     52 H17         7.4676   -7.9344   -3.7060 H         1 <0>         0.0706
     53 H18         8.3696   -7.5532   -2.2165 H         1 <0>         0.0646
     54 H19         7.3138   -5.2289   -2.9266 H         1 <0>         0.0853
     55 H20         6.0297   -4.2031   -2.2432 H         1 <0>         0.0786
     56 H21         6.9840   -4.5186    0.0236 H         1 <0>         0.0876
     57 H22         8.2681   -5.5445   -0.6598 H         1 <0>         0.0909
     58 H23         9.0407   -3.6468   -2.0565 H         1 <0>         0.1332
     59 H24         7.7566   -2.6210   -1.3731 H         1 <0>         0.1311
     60 H25         7.8902   -1.8761    0.8916 H         1 <0>         0.1327
     61 H26         7.7712   -3.5934    1.3420 H         1 <0>         0.1393
     62 H27         8.7329   -2.2509    3.1927 H         1 <0>         0.1201
     63 H28         9.9210   -3.4208    2.5674 H         1 <0>         0.0958
     64 H29         9.7490   -0.4595    1.8413 H         1 <0>         0.0735
     65 H30        11.7749   -0.8929    0.5088 H         1 <0>         0.1142
     66 H31        11.7318   -2.6124    0.9698 H         1 <0>         0.0966
     67 H32        10.7406   -2.2678   -1.2778 H         1 <0>         0.1339
     68 H33         9.5621   -1.1298   -0.5835 H         1 <0>         0.1305
     69 H34        11.8418   -0.4632    2.9944 H         1 <0>         0.3939
     70 H35        -0.3788   -6.3721   -1.5733 H         1 <0>         0.4248
     71 H36         9.8530   -3.9426    0.1978 H         1 <0>         0.4240
@<TRIPOS>BOND
     1    1    2 1
     2    1   37 1
     3    1   38 1
     4    1   39 1
     5    2    3 1
     6    2   40 1
     7    2   41 1
     8    3    4 2
     9    3    5 2
    10    3    6 1
    11    6   11 ar
    12    6    7 ar
    13    7    8 ar
    14    7   42 1
    15    8    9 ar
    16    8   43 1
    17    9   36 1
    18    9   10 ar
    19   10   11 ar
    20   10   12 1
    21   11   44 1
    22   12   13 2
    23   12   34 1
    24   13   14 1
    25   13   45 1
    26   14   18 1
    27   14   15 2
    28   15   16 1
    29   15   24 1
    30   16   23 1
    31   16   17 2
    32   17   18 1
    33   17   20 1
    34   18   19 1
    35   20   21 1
    36   20   46 1
    37   20   47 1
    38   21   22 1
    39   21   48 1
    40   21   49 1
    41   22   23 1
    42   22   50 1
    43   22   51 1
    44   23   52 1
    45   23   53 1
    46   24   25 1
    47   24   54 1
    48   24   55 1
    49   25   26 1
    50   25   56 1
    51   25   57 1
    52   26   27 1
    53   26   58 1
    54   26   59 1
    55   27   32 1
    56   27   28 1
    57   27   71 1
    58   28   29 1
    59   28   60 1
    60   28   61 1
    61   29   30 1
    62   29   62 1
    63   29   63 1
    64   30   31 1
    65   30   33 1
    66   30   64 1
    67   31   32 1
    68   31   65 1
    69   31   66 1
    70   32   67 1
    71   32   68 1
    72   33   69 1
    73   34   35 2
    74   34   36 am
    75   36   70 1
@<TRIPOS>MOLECULE
CHEMBL190281
   56    60     0     0     0
SMALL
USER_CHARGES

@<TRIPOS>ATOM
      1 C1          1.0753   -0.2939   -0.6763 C.ar      1 <0>        -0.0599
      2 C2          2.1767    0.5376   -0.7206 C.ar      1 <0>        -0.1633
      3 C3          2.1251    1.7908   -0.1242 C.ar      1 <0>         0.1820
      4 C4          0.9656    2.2075    0.5167 C.ar      1 <0>        -0.1637
      5 C5         -0.1357    1.3759    0.5610 C.ar      1 <0>        -0.0949
      6 C6         -0.0840    0.1228   -0.0353 C.ar      1 <0>         0.1274
      7 N1         -1.2013   -0.7208    0.0096 N.pl3     1 <0>        -0.6278
      8 C7         -1.0308   -2.0880    0.1095 C.ar      1 <0>         0.6086
      9 N2          0.1961   -2.5684    0.2814 N.ar      1 <0>        -0.5747
     10 C8          0.4143   -3.8671    0.3829 C.ar      1 <0>         0.2671
     11 C9         -0.6812   -4.7349    0.3051 C.ar      1 <0>        -0.2859
     12 C10        -0.5295   -6.1831    0.4081 C.2       1 <0>         0.0464
     13 C11        -1.6447   -6.9554    0.3228 C.2       1 <0>        -0.2097
     14 C12        -2.9088   -6.3572    0.1390 C.2       1 <0>         0.5517
     15 O1         -3.8959   -7.0682    0.0647 O.2       1 <0>        -0.4792
     16 N3         -3.0546   -5.0237    0.0440 N.am      1 <0>        -0.4952
     17 C13        -1.9701   -4.1883    0.1220 C.ar      1 <0>         0.4719
     18 N4         -2.0973   -2.8702    0.0355 N.ar      1 <0>        -0.5926
     19 C14        -4.3913   -4.4554   -0.1466 C.3       1 <0>         0.1268
     20 C15        -5.3238   -4.9027    0.9980 C.3       1 <0>        -0.1327
     21 C16        -6.6938   -5.1204    0.3088 C.3       1 <0>        -0.1167
     22 C17        -6.2962   -5.7409   -1.0536 C.3       1 <0>        -0.1179
     23 C18        -5.0096   -4.9883   -1.4510 C.3       1 <0>        -0.1247
     24 Br1        -1.5011   -8.8366    0.4502 Br        1 <0>         0.0092
     25 N5          3.2414    2.6334   -0.1687 N.pl3     1 <0>        -0.6457
     26 C19         3.1743    4.0062    0.3556 C.3       1 <0>         0.0979
     27 C20         4.3575    4.2219    1.3050 C.3       1 <0>        -0.0239
     28 N6          5.6087    3.9002    0.6072 N.4       1 <0>        -0.5040
     29 C21         5.6354    2.4736    0.2605 C.3       1 <0>        -0.0233
     30 C22         4.5172    2.1694   -0.7355 C.3       1 <0>         0.0980
     31 H1          1.1140   -1.2666   -1.1439 H         1 <0>         0.1393
     32 H2          3.0784    0.2134   -1.2187 H         1 <0>         0.1268
     33 H3          0.9255    3.1819    0.9808 H         1 <0>         0.1275
     34 H4         -1.0372    1.6998    1.0597 H         1 <0>         0.1320
     35 H5         -2.0946   -0.3450   -0.0294 H         1 <0>         0.4278
     36 H6          1.4143   -4.2504    0.5222 H         1 <0>         0.1888
     37 H7          0.4440   -6.6294    0.5480 H         1 <0>         0.1615
     38 H8         -4.3332   -3.3674   -0.1782 H         1 <0>         0.1187
     39 H9         -4.9667   -5.8332    1.4394 H         1 <0>         0.0842
     40 H10        -5.3979   -4.1233    1.7564 H         1 <0>         0.0683
     41 H11        -7.3096   -5.8122    0.8833 H         1 <0>         0.0730
     42 H12        -7.2091   -4.1707    0.1650 H         1 <0>         0.0679
     43 H13        -6.0962   -6.8067   -0.9435 H         1 <0>         0.0799
     44 H14        -7.0799   -5.5732   -1.7924 H         1 <0>         0.0660
     45 H15        -5.2523   -4.1589   -2.1153 H         1 <0>         0.0726
     46 H16        -4.3150   -5.6697   -1.9423 H         1 <0>         0.0676
     47 H17         3.2322    4.7165   -0.4691 H         1 <0>         0.0882
     48 H18         2.2392    4.1458    0.8981 H         1 <0>         0.1265
     49 H19         4.3789    5.2626    1.6285 H         1 <0>         0.1433
     50 H20         4.2490    3.5733    2.1743 H         1 <0>         0.1345
     51 H21         6.5986    2.2261   -0.1858 H         1 <0>         0.1439
     52 H22         5.4883    1.8779    1.1613 H         1 <0>         0.1344
     53 H23         4.4695    1.0952   -0.9141 H         1 <0>         0.1269
     54 H24         4.7130    2.6911   -1.6723 H         1 <0>         0.0874
     55 H25         5.6736    4.4512   -0.2356 H         1 <0>         0.4283
     56 H26         6.3915    4.1141    1.2070 H         1 <0>         0.4335
@<TRIPOS>BOND
     1    1    6 ar
     2    1    2 ar
     3    1   31 1
     4    2    3 ar
     5    2   32 1
     6    3    4 ar
     7    3   25 1
     8    4    5 ar
     9    4   33 1
    10    5    6 ar
    11    5   34 1
    12    6    7 1
    13    7    8 1
    14    7   35 1
    15    8   18 ar
    16    8    9 ar
    17    9   10 ar
    18   10   11 ar
    19   10   36 1
    20   11   17 ar
    21   11   12 1
    22   12   13 2
    23   12   37 1
    24   13   14 1
    25   13   24 1
    26   14   15 2
    27   14   16 am
    28   16   17 1
    29   16   19 1
    30   17   18 ar
    31   19   23 1
    32   19   20 1
    33   19   38 1
    34   20   21 1
    35   20   39 1
    36   20   40 1
    37   21   22 1
    38   21   41 1
    39   21   42 1
    40   22   23 1
    41   22   43 1
    42   22   44 1
    43   23   45 1
    44   23   46 1
    45   25   30 1
    46   25   26 1
    47   26   27 1
    48   26   47 1
    49   26   48 1
    50   27   28 1
    51   27   49 1
    52   27   50 1
    53   28   29 1
    54   28   55 1
    55   28   56 1
    56   29   30 1
    57   29   51 1
    58   29   52 1
    59   30   53 1
    60   30   54 1
@<TRIPOS>MOLECULE
CHEMBL13983
   58    61     0     0     0
SMALL
USER_CHARGES

@<TRIPOS>ATOM
      1 C1         -0.4150    1.4143    0.0421 C.3       1 <0>        -0.0948
      2 C2         -0.1211   -0.0633    0.0078 C.2       1 <0>        -0.0575
      3 C3          0.0576   -0.8412   -1.1191 C.2       1 <0>        -0.0107
      4 N1          0.3054   -2.1349   -0.7093 N.pl3     1 <0>        -0.4931
      5 H1          0.4677   -2.8890   -1.2975 H         1 <0>         0.4253
      6 C4          0.2863   -2.1856    0.6331 C.2       1 <0>         0.1104
      7 C5          0.0303   -0.9171    1.1214 C.2       1 <0>        -0.2365
      8 C6         -0.0687   -0.5296    2.5403 C.2       1 <0>         0.6023
      9 O1         -1.1426   -0.5743    3.1093 O.2       1 <0>        -0.5229
     10 N2          1.0308   -0.1259    3.2070 N.am      1 <0>        -0.7314
     11 C7          0.9324    0.2591    4.6170 C.3       1 <0>         0.1228
     12 C8          2.3130    0.6733    5.1302 C.3       1 <0>        -0.1126
     13 C9          3.2495   -0.5383    5.1152 C.3       1 <0>        -0.1459
     14 C10         4.6037   -0.1366    5.7035 C.3       1 <0>        -0.0065
     15 N3          4.4232    0.3271    7.0844 N.4       1 <0>        -0.3853
     16 C11         3.5844    1.5315    7.0998 C.3       1 <0>        -0.0054
     17 C12         2.1909    1.1940    6.5652 C.3       1 <0>        -0.1411
     18 C13         5.7340    0.6376    7.6704 C.3       1 <0>        -0.0474
     19 C14         0.5128   -3.4191    1.4687 C.3       1 <0>        -0.0985
     20 C15        -0.0030   -0.3914   -2.4562 C.2       1 <0>         0.0734
     21 C16        -0.5015   -1.2202   -3.4414 C.2       1 <0>        -0.1897
     22 C17        -0.4951   -0.9862   -4.9027 C.ar      1 <0>        -0.0735
     23 C18        -0.0270    0.0538   -5.6996 C.ar      1 <0>        -0.1002
     24 C19        -0.1699   -0.0177   -7.0724 C.ar      1 <0>         0.0842
     25 C20        -0.7775   -1.1223   -7.6507 C.ar      1 <0>        -0.1140
     26 C21        -1.2444   -2.1579   -6.8672 C.ar      1 <0>        -0.1029
     27 C22        -1.1094   -2.1033   -5.4843 C.ar      1 <0>         0.1304
     28 N4         -1.4846   -2.9913   -4.4820 N.am      1 <0>        -0.6475
     29 C23        -1.1474   -2.5281   -3.2664 C.2       1 <0>         0.5576
     30 O2         -1.3452   -3.0925   -2.2052 O.2       1 <0>        -0.5108
     31 F1          0.2823    0.9891   -7.8515 F         1 <0>        -0.1328
     32 H2          0.5220    1.9706    0.0666 H         1 <0>         0.0734
     33 H3         -0.9799    1.6932   -0.8475 H         1 <0>         0.0724
     34 H4         -0.9997    1.6480    0.9318 H         1 <0>         0.0697
     35 H5          1.8874   -0.0902    2.7531 H         1 <0>         0.4008
     36 H6          0.2412    1.0960    4.7178 H         1 <0>         0.0784
     37 H7          0.5667   -0.5863    5.1998 H         1 <0>         0.0743
     38 H8          2.7192    1.4574    4.4913 H         1 <0>         0.0975
     39 H9          2.8165   -1.3404    5.7128 H         1 <0>         0.0930
     40 H10         3.3854   -0.8805    4.0893 H         1 <0>         0.1120
     41 H11         5.2730   -0.9968    5.6941 H         1 <0>         0.1316
     42 H12         5.0359    0.6654    5.1050 H         1 <0>         0.1290
     43 H13         3.5011    1.9027    8.1212 H         1 <0>         0.1331
     44 H14         4.0382    2.2979    6.4715 H         1 <0>         0.1293
     45 H15         1.5701    2.0899    6.5757 H         1 <0>         0.1173
     46 H16         1.7359    0.4277    7.1929 H         1 <0>         0.0933
     47 H17         6.2180    1.4190    7.0845 H         1 <0>         0.1216
     48 H18         5.6011    0.9820    8.6960 H         1 <0>         0.1243
     49 H19         6.3555   -0.2578    7.6655 H         1 <0>         0.1238
     50 H20         1.5751   -3.5164    1.6924 H         1 <0>         0.0790
     51 H21        -0.0483   -3.3355    2.3994 H         1 <0>         0.0854
     52 H22         0.1754   -4.2976    0.9186 H         1 <0>         0.0786
     53 H23         0.3406    0.6010   -2.7081 H         1 <0>         0.1578
     54 H24         0.4456    0.9132   -5.2475 H         1 <0>         0.1428
     55 H25        -0.8866   -1.1722   -8.7240 H         1 <0>         0.1480
     56 H26        -1.7162   -3.0126   -7.3291 H         1 <0>         0.1414
     57 H27        -1.9293   -3.8386   -4.6405 H         1 <0>         0.4218
     58 H28         3.9782   -0.3985    7.6263 H         1 <0>         0.4252
@<TRIPOS>BOND
     1    1    2 1
     2    1   32 1
     3    1   33 1
     4    1   34 1
     5    2    7 1
     6    2    3 2
     7    3    4 1
     8    3   20 1
     9    4    5 1
    10    4    6 1
    11    6    7 2
    12    6   19 1
    13    7    8 1
    14    8    9 2
    15    8   10 am
    16   10   11 1
    17   10   35 1
    18   11   12 1
    19   11   36 1
    20   11   37 1
    21   12   17 1
    22   12   13 1
    23   12   38 1
    24   13   14 1
    25   13   39 1
    26   13   40 1
    27   14   15 1
    28   14   41 1
    29   14   42 1
    30   15   16 1
    31   15   18 1
    32   15   58 1
    33   16   17 1
    34   16   43 1
    35   16   44 1
    36   17   45 1
    37   17   46 1
    38   18   47 1
    39   18   48 1
    40   18   49 1
    41   19   50 1
    42   19   51 1
    43   19   52 1
    44   20   21 2
    45   20   53 1
    46   21   29 1
    47   21   22 1
    48   22   27 ar
    49   22   23 ar
    50   23   24 ar
    51   23   54 1
    52   24   25 ar
    53   24   31 1
    54   25   26 ar
    55   25   55 1
    56   26   27 ar
    57   26   56 1
    58   27   28 1
    59   28   29 am
    60   28   57 1
    61   29   30 2
@<TRIPOS>MOLECULE
CHEMBL191003
   39    41     0     0     0
SMALL
USER_CHARGES

@<TRIPOS>ATOM
      1 C1         -0.0095    1.3826    0.0704 C.ar      1 <0>        -0.0343
      2 C2          0.5587    1.0580   -1.1482 C.ar      1 <0>        -0.1609
      3 C3          1.7655    0.3862   -1.1955 C.ar      1 <0>         0.1753
      4 C4          2.4129    0.0342   -0.0053 C.ar      1 <0>        -0.1954
      5 C5          1.8304    0.3669    1.2233 C.ar      1 <0>         0.1741
      6 C6          0.6231    1.0388    1.2514 C.ar      1 <0>        -0.1610
      7 F1          2.4463    0.0317    2.3781 F         1 <0>        -0.1212
      8 C7          3.6999   -0.6827   -0.0456 C.2       1 <0>         0.6210
      9 O1          4.7383   -0.0615   -0.1600 O.2       1 <0>        -0.4669
     10 N1          3.7255   -2.0272    0.0446 N.am      1 <0>        -0.3962
     11 C8          4.8314   -2.8210    0.1249 C.2       1 <0>         0.5948
     12 N2          4.4249   -4.0694    0.1979 N.2       1 <0>        -0.5873
     13 C9          3.0869   -4.1118    0.1675 C.2       1 <0>         0.5191
     14 N3          2.6183   -2.8904    0.0808 N.2       1 <0>        -0.3480
     15 N4          2.3148   -5.2702    0.2247 N.pl3     1 <0>        -0.6226
     16 C10         2.9267   -6.5079    0.4407 C.ar      1 <0>         0.2365
     17 C11         4.1432   -6.5760    1.1080 C.ar      1 <0>        -0.1584
     18 C12         4.7450   -7.8008    1.3202 C.ar      1 <0>         0.0098
     19 C13         4.1379   -8.9586    0.8692 C.ar      1 <0>        -0.7033
     20 C14         2.9269   -8.8944    0.2046 C.ar      1 <0>         0.0112
     21 C15         2.3170   -7.6734   -0.0063 C.ar      1 <0>        -0.1777
     22 S1          4.9094  -10.5191    1.1415 S.o2      1 <0>         2.7034
     23 O2          4.4084  -11.3993    0.1448 O.2       1 <0>        -0.9656
     24 O3          6.2977  -10.2630    1.3036 O.2       1 <0>        -0.9650
     25 N5          4.3605  -11.0895    2.5960 N.pl3     1 <0>        -1.2510
     26 N6          6.1422   -2.3912    0.1281 N.pl3     1 <0>        -0.7911
     27 F2          2.3185    0.0697   -2.3868 F         1 <0>        -0.1201
     28 H1         -0.9506    1.9116    0.0998 H         1 <0>         0.1546
     29 H2          0.0576    1.3300   -2.0654 H         1 <0>         0.1549
     30 H3          0.1721    1.2963    2.1984 H         1 <0>         0.1546
     31 H4          1.3525   -5.2176    0.1147 H         1 <0>         0.4325
     32 H5          4.6180   -5.6722    1.4601 H         1 <0>         0.1556
     33 H6          5.6909   -7.8544    1.8385 H         1 <0>         0.1456
     34 H7          2.4556   -9.8005   -0.1466 H         1 <0>         0.1475
     35 H8          1.3691   -7.6243   -0.5215 H         1 <0>         0.1387
     36 H9          3.7284  -10.5673    3.1145 H         1 <0>         0.4165
     37 H10         4.6709  -11.9458    2.9296 H         1 <0>         0.4206
     38 H11         6.3422   -1.4439    0.0694 H         1 <0>         0.4292
     39 H12         6.8640   -3.0364    0.1890 H         1 <0>         0.4303
@<TRIPOS>BOND
     1    1    6 ar
     2    1    2 ar
     3    1   28 1
     4    2    3 ar
     5    2   29 1
     6    3    4 ar
     7    3   27 1
     8    4    5 ar
     9    4    8 1
    10    5    6 ar
    11    5    7 1
    12    6   30 1
    13    8    9 2
    14    8   10 am
    15   10   14 1
    16   10   11 1
    17   11   12 2
    18   11   26 1
    19   12   13 1
    20   13   14 2
    21   13   15 1
    22   15   16 1
    23   15   31 1
    24   16   21 ar
    25   16   17 ar
    26   17   18 ar
    27   17   32 1
    28   18   19 ar
    29   18   33 1
    30   19   20 ar
    31   19   22 1
    32   20   21 ar
    33   20   34 1
    34   21   35 1
    35   22   23 2
    36   22   24 2
    37   22   25 1
    38   25   36 1
    39   25   37 1
    40   26   38 1
    41   26   39 1
@<TRIPOS>MOLECULE
CHEMBL370266
   62    65     0     0     0
SMALL
USER_CHARGES

@<TRIPOS>ATOM
      1 C1          0.5896    0.4889    0.7162 C.3       1 <0>        -0.1498
      2 C2          0.1521   -0.9157    0.2962 C.3       1 <0>        -0.0277
      3 C3          0.5811   -1.9242    1.3638 C.3       1 <0>        -0.1477
      4 C4         -1.3470   -0.9509    0.1455 C.2       1 <0>        -0.0963
      5 C5         -2.2908   -0.7700    1.1630 C.2       1 <0>         0.1036
      6 C6         -3.5312   -0.8780    0.6060 C.2       1 <0>         0.0642
      7 N1         -3.3979   -1.1192   -0.7191 N.pl3     1 <0>        -0.2326
      8 C7         -2.0509   -1.1619   -1.0244 C.2       1 <0>        -0.0896
      9 C8         -1.6698   -1.3975   -2.3653 C.2       1 <0>         0.5312
     10 N2         -2.6079   -1.5656   -3.2830 N.2       1 <0>        -0.6190
     11 C9         -3.9025   -1.5183   -2.9744 C.2       1 <0>         0.3169
     12 N3         -4.3216   -1.3136   -1.7557 N.2       1 <0>        -0.3275
     13 N4         -0.3340   -1.4510   -2.7132 N.pl3     1 <0>        -0.6151
     14 C10         0.0371   -1.8210   -4.0120 C.ar      1 <0>         0.1035
     15 C11        -0.9069   -2.3439   -4.8783 C.ar      1 <0>        -0.0675
     16 C12        -0.5335   -2.7114   -6.1731 C.ar      1 <0>        -0.1526
     17 C13         0.7931   -2.5484   -6.5863 C.ar      1 <0>         0.1792
     18 C14         1.7283   -2.0252   -5.7134 C.ar      1 <0>        -0.1732
     19 C15         1.3549   -1.6569   -4.4327 C.ar      1 <0>         0.1277
     20 F1          2.2726   -1.1409   -3.5861 F         1 <0>        -0.1215
     21 F2          1.1598   -2.9026   -7.8374 F         1 <0>        -0.1011
     22 C16        -1.5350   -3.2701   -7.1020 C.2       1 <0>         0.5752
     23 O1         -1.2078   -3.5893   -8.2287 O.2       1 <0>        -0.4990
     24 N5         -2.8123   -3.4265   -6.7015 N.am      1 <0>        -0.5937
     25 O2         -3.7732   -3.9626   -7.5928 O.3       1 <0>        -0.1376
     26 C17        -5.0848   -4.0722   -7.0362 C.3       1 <0>        -0.0039
     27 N6         -2.0102   -0.5215    2.5184 N.am      1 <0>        -0.6185
     28 C18        -3.0195   -0.3660    3.3980 C.2       1 <0>         0.6506
     29 O3         -4.1719   -0.4406    3.0198 O.2       1 <0>        -0.5564
     30 O4         -2.7508   -0.1281    4.6959 O.3       1 <0>        -0.3476
     31 C19        -3.8690    0.0262    5.5722 C.3       1 <0>         0.0752
     32 C20        -3.3699    0.2879    6.9947 C.3       1 <0>         0.0816
     33 C21        -4.5669    0.3415    7.9681 C.3       1 <0>        -0.1482
     34 C22        -4.1620    1.4957    8.9252 C.3       1 <0>        -0.1556
     35 C23        -3.4056    2.4337    7.9512 C.3       1 <0>         0.0451
     36 O5         -2.7084    1.5572    7.0517 O.3       1 <0>        -0.3696
     37 H1          1.6738    0.5143    0.8252 H         1 <0>         0.0702
     38 H2          0.2839    1.2073   -0.0444 H         1 <0>         0.0614
     39 H3          0.1227    0.7457    1.6671 H         1 <0>         0.0597
     40 H4          0.6189   -1.1726   -0.6547 H         1 <0>         0.0682
     41 H5          0.1142   -1.6673    2.3147 H         1 <0>         0.0568
     42 H6          0.2694   -2.9249    1.0646 H         1 <0>         0.0630
     43 H7          1.6653   -1.8987    1.4728 H         1 <0>         0.0707
     44 H8         -4.4676   -0.7863    1.1363 H         1 <0>         0.2098
     45 H9         -4.6308   -1.6616   -3.7589 H         1 <0>         0.2227
     46 H10         0.3470   -1.2324   -2.0579 H         1 <0>         0.4293
     47 H11        -1.9296   -2.4678   -4.5540 H         1 <0>         0.2048
     48 H12         2.7523   -1.9000   -6.0328 H         1 <0>         0.1667
     49 H13        -3.0734   -3.1718   -5.8027 H         1 <0>         0.4077
     50 H14        -5.7617   -4.4908   -7.7810 H         1 <0>         0.1164
     51 H15        -5.0559   -4.7250   -6.1638 H         1 <0>         0.0580
     52 H16        -5.4373   -3.0844   -6.7394 H         1 <0>         0.0590
     53 H17        -1.0903   -0.4620    2.8203 H         1 <0>         0.4215
     54 H18        -4.4774    0.8674    5.2401 H         1 <0>         0.0766
     55 H19        -4.4690   -0.8837    5.5594 H         1 <0>         0.0832
     56 H20        -2.6815   -0.5016    7.2960 H         1 <0>         0.0945
     57 H21        -5.4880    0.5827    7.4374 H         1 <0>         0.0835
     58 H22        -4.6663   -0.5973    8.5129 H         1 <0>         0.0913
     59 H23        -5.0412    1.9878    9.3412 H         1 <0>         0.0880
     60 H24        -3.5035    1.1372    9.7163 H         1 <0>         0.0825
     61 H25        -4.1111    3.0568    7.4014 H         1 <0>         0.0622
     62 H26        -2.6971    3.0556    8.4984 H         1 <0>         0.0895
@<TRIPOS>BOND
     1    1    2 1
     2    1   37 1
     3    1   38 1
     4    1   39 1
     5    2    3 1
     6    2    4 1
     7    2   40 1
     8    3   41 1
     9    3   42 1
    10    3   43 1
    11    4    8 2
    12    4    5 1
    13    5    6 2
    14    5   27 1
    15    6    7 1
    16    6   44 1
    17    7   12 1
    18    7    8 1
    19    8    9 1
    20    9   10 2
    21    9   13 1
    22   10   11 1
    23   11   12 2
    24   11   45 1
    25   13   14 1
    26   13   46 1
    27   14   19 ar
    28   14   15 ar
    29   15   16 ar
    30   15   47 1
    31   16   17 ar
    32   16   22 1
    33   17   18 ar
    34   17   21 1
    35   18   19 ar
    36   18   48 1
    37   19   20 1
    38   22   23 2
    39   22   24 am
    40   24   25 1
    41   24   49 1
    42   25   26 1
    43   26   50 1
    44   26   51 1
    45   26   52 1
    46   27   28 am
    47   27   53 1
    48   28   29 2
    49   28   30 1
    50   30   31 1
    51   31   32 1
    52   31   54 1
    53   31   55 1
    54   32   36 1
    55   32   33 1
    56   32   56 1
    57   33   34 1
    58   33   57 1
    59   33   58 1
    60   34   35 1
    61   34   59 1
    62   34   60 1
    63   35   36 1
    64   35   61 1
    65   35   62 1
@<TRIPOS>MOLECULE
CHEMBL370266__1
   62    65     0     0     0
SMALL
USER_CHARGES

@<TRIPOS>ATOM
      1 C1          0.5896    0.4889    0.7162 C.3       1 <0>        -0.1495
      2 C2          0.1521   -0.9157    0.2962 C.3       1 <0>        -0.0277
      3 C3          0.5811   -1.9242    1.3638 C.3       1 <0>        -0.1480
      4 C4         -1.3470   -0.9509    0.1455 C.2       1 <0>        -0.0962
      5 C5         -2.2908   -0.7700    1.1630 C.2       1 <0>         0.1035
      6 C6         -3.5312   -0.8780    0.6060 C.2       1 <0>         0.0644
      7 N1         -3.3979   -1.1192   -0.7191 N.pl3     1 <0>        -0.2325
      8 C7         -2.0509   -1.1619   -1.0244 C.2       1 <0>        -0.0896
      9 C8         -1.6698   -1.3975   -2.3653 C.2       1 <0>         0.5311
     10 N2         -2.6079   -1.5656   -3.2830 N.2       1 <0>        -0.6190
     11 C9         -3.9025   -1.5183   -2.9744 C.2       1 <0>         0.3169
     12 N3         -4.3216   -1.3136   -1.7557 N.2       1 <0>        -0.3274
     13 N4         -0.3340   -1.4510   -2.7132 N.pl3     1 <0>        -0.6151
     14 C10         0.0371   -1.8210   -4.0120 C.ar      1 <0>         0.1035
     15 C11        -0.9069   -2.3439   -4.8783 C.ar      1 <0>        -0.0675
     16 C12        -0.5335   -2.7114   -6.1731 C.ar      1 <0>        -0.1526
     17 C13         0.7931   -2.5484   -6.5863 C.ar      1 <0>         0.1792
     18 C14         1.7283   -2.0252   -5.7134 C.ar      1 <0>        -0.1732
     19 C15         1.3549   -1.6569   -4.4327 C.ar      1 <0>         0.1277
     20 F1          2.2726   -1.1409   -3.5861 F         1 <0>        -0.1215
     21 F2          1.1598   -2.9026   -7.8374 F         1 <0>        -0.1011
     22 C16        -1.5350   -3.2701   -7.1020 C.2       1 <0>         0.5752
     23 O1         -1.2078   -3.5893   -8.2287 O.2       1 <0>        -0.4990
     24 N5         -2.8123   -3.4265   -6.7015 N.am      1 <0>        -0.5937
     25 O2         -3.7732   -3.9626   -7.5928 O.3       1 <0>        -0.1376
     26 C17        -5.0848   -4.0722   -7.0362 C.3       1 <0>        -0.0039
     27 N6         -2.0102   -0.5215    2.5184 N.am      1 <0>        -0.6184
     28 C18        -3.0195   -0.3660    3.3980 C.2       1 <0>         0.6513
     29 O3         -4.1719   -0.4406    3.0198 O.2       1 <0>        -0.5557
     30 O4         -2.7508   -0.1281    4.6959 O.3       1 <0>        -0.3488
     31 C19        -3.8690    0.0262    5.5722 C.3       1 <0>         0.0870
     32 C20        -3.3699    0.2879    6.9947 C.3       1 <0>         0.0814
     33 C21        -4.5674    0.5125    7.9520 C.3       1 <0>        -0.1487
     34 C22        -3.9364    0.1100    9.3128 C.3       1 <0>        -0.1551
     35 C23        -2.9698   -1.0221    8.9037 C.3       1 <0>         0.0475
     36 O5         -2.6927   -0.8708    7.5065 O.3       1 <0>        -0.3727
     37 H1          1.6738    0.5143    0.8252 H         1 <0>         0.0702
     38 H2          0.2839    1.2073   -0.0444 H         1 <0>         0.0614
     39 H3          0.1227    0.7457    1.6671 H         1 <0>         0.0592
     40 H4          0.6189   -1.1726   -0.6547 H         1 <0>         0.0682
     41 H5          0.1142   -1.6673    2.3147 H         1 <0>         0.0571
     42 H6          0.2694   -2.9249    1.0646 H         1 <0>         0.0632
     43 H7          1.6653   -1.8987    1.4728 H         1 <0>         0.0706
     44 H8         -4.4676   -0.7863    1.1363 H         1 <0>         0.2099
     45 H9         -4.6308   -1.6616   -3.7589 H         1 <0>         0.2227
     46 H10         0.3470   -1.2324   -2.0579 H         1 <0>         0.4292
     47 H11        -1.9296   -2.4678   -4.5540 H         1 <0>         0.2048
     48 H12         2.7523   -1.9000   -6.0328 H         1 <0>         0.1667
     49 H13        -3.0734   -3.1718   -5.8027 H         1 <0>         0.4077
     50 H14        -5.7617   -4.4908   -7.7810 H         1 <0>         0.1164
     51 H15        -5.0559   -4.7250   -6.1638 H         1 <0>         0.0580
     52 H16        -5.4373   -3.0844   -6.7394 H         1 <0>         0.0590
     53 H17        -1.0903   -0.4620    2.8203 H         1 <0>         0.4215
     54 H18        -4.4774    0.8674    5.2401 H         1 <0>         0.0867
     55 H19        -4.4690   -0.8837    5.5594 H         1 <0>         0.0800
     56 H20        -2.7052    1.1517    7.0088 H         1 <0>         0.0851
     57 H21        -4.8764    1.5578    7.9560 H         1 <0>         0.0913
     58 H22        -5.4018   -0.1409    7.6973 H         1 <0>         0.0852
     59 H23        -3.3912    0.9465    9.7501 H         1 <0>         0.0805
     60 H24        -4.6981   -0.2594    9.9994 H         1 <0>         0.0871
     61 H25        -2.0448   -0.9429    9.4748 H         1 <0>         0.0719
     62 H26        -3.4363   -1.9903    9.0854 H         1 <0>         0.0720
@<TRIPOS>BOND
     1    1    2 1
     2    1   37 1
     3    1   38 1
     4    1   39 1
     5    2    3 1
     6    2    4 1
     7    2   40 1
     8    3   41 1
     9    3   42 1
    10    3   43 1
    11    4    8 2
    12    4    5 1
    13    5    6 2
    14    5   27 1
    15    6    7 1
    16    6   44 1
    17    7   12 1
    18    7    8 1
    19    8    9 1
    20    9   10 2
    21    9   13 1
    22   10   11 1
    23   11   12 2
    24   11   45 1
    25   13   14 1
    26   13   46 1
    27   14   19 ar
    28   14   15 ar
    29   15   16 ar
    30   15   47 1
    31   16   17 ar
    32   16   22 1
    33   17   18 ar
    34   17   21 1
    35   18   19 ar
    36   18   48 1
    37   19   20 1
    38   22   23 2
    39   22   24 am
    40   24   25 1
    41   24   49 1
    42   25   26 1
    43   26   50 1
    44   26   51 1
    45   26   52 1
    46   27   28 am
    47   27   53 1
    48   28   29 2
    49   28   30 1
    50   30   31 1
    51   31   32 1
    52   31   54 1
    53   31   55 1
    54   32   36 1
    55   32   33 1
    56   32   56 1
    57   33   34 1
    58   33   57 1
    59   33   58 1
    60   34   35 1
    61   34   59 1
    62   34   60 1
    63   35   36 1
    64   35   61 1
    65   35   62 1
@<TRIPOS>MOLECULE
CHEMBL56569
   54    57     0     0     0
SMALL
USER_CHARGES

@<TRIPOS>ATOM
      1 C1          0.0361    0.2167   -0.8788 C.3       1 <0>         0.0814
      2 N1          0.4461   -0.9551   -0.1011 N.pl3     1 <0>        -1.1201
      3 S1          0.8925   -0.7819    1.4842 S.o2      1 <0>         2.7003
      4 O1          1.2044   -2.0830    1.9628 O.2       1 <0>        -0.9573
      5 O2          1.8243    0.2900    1.5290 O.2       1 <0>        -0.9536
      6 C2         -0.5330   -0.2473    2.3713 C.ar      1 <0>        -0.6983
      7 C3         -0.7968    1.1058    2.5057 C.ar      1 <0>         0.0100
      8 C4         -1.9090    1.5402    3.1975 C.ar      1 <0>        -0.1538
      9 C5         -2.7791    0.6183    3.7693 C.ar      1 <0>         0.1954
     10 C6         -2.5088   -0.7500    3.6312 C.ar      1 <0>        -0.1118
     11 C7         -1.3880   -1.1775    2.9265 C.ar      1 <0>         0.0339
     12 C8         -3.5974   -1.4631    4.3354 C.2       1 <0>        -0.2134
     13 C9         -3.7580   -2.8289    4.4701 C.2       1 <0>         0.0915
     14 C10        -4.7700   -3.3406    5.3083 C.2       1 <0>        -0.0208
     15 C11        -5.4934   -4.5076    5.1039 C.2       1 <0>        -0.0819
     16 C12        -6.3801   -4.6266    6.1682 C.2       1 <0>        -0.1688
     17 C13        -6.1975   -3.5588    6.9932 C.2       1 <0>         0.0727
     18 N2         -5.2183   -2.7760    6.4850 N.pl3     1 <0>        -0.5028
     19 H1         -4.8880   -1.9542    6.8804 H         1 <0>         0.4191
     20 C14        -6.9842   -3.3330    8.2626 C.3       1 <0>        -0.0573
     21 C15        -8.2329   -4.2217    8.2231 C.3       1 <0>        -0.1131
     22 C16        -7.8289   -5.6576    7.8783 C.3       1 <0>        -0.1198
     23 C17        -7.3848   -5.7252    6.4120 C.3       1 <0>        -0.0473
     24 C18        -5.3461   -5.4634    3.9481 C.3       1 <0>        -0.0391
     25 C19        -4.3070   -6.5305    4.2980 C.3       1 <0>        -0.1365
     26 C20        -4.1597   -7.4862    3.1423 C.2       1 <0>         0.5150
     27 O3         -4.8207   -7.3294    2.1376 O.2       1 <0>        -0.5424
     28 N3         -3.2933   -8.5153    3.2250 N.am      1 <0>        -0.8584
     29 C21        -4.4697   -0.4051    4.8610 C.2       1 <0>         0.5584
     30 O4         -5.4885   -0.5727    5.5077 O.2       1 <0>        -0.5034
     31 N4         -3.9477    0.7804    4.5032 N.am      1 <0>        -0.6509
     32 H2          0.8553    0.9350   -0.9129 H         1 <0>         0.0704
     33 H3         -0.2193   -0.0913   -1.8927 H         1 <0>         0.0849
     34 H4         -0.8327    0.6784   -0.4096 H         1 <0>         0.0604
     35 H5          0.4562   -1.8324   -0.5147 H         1 <0>         0.4206
     36 H6         -0.1253    1.8279    2.0651 H         1 <0>         0.1499
     37 H7         -2.1039    2.5980    3.2953 H         1 <0>         0.1396
     38 H8         -1.1856   -2.2328    2.8181 H         1 <0>         0.1459
     39 H9         -3.1085   -3.5045    3.9334 H         1 <0>         0.1541
     40 H10        -6.3727   -3.5975    9.1253 H         1 <0>         0.0800
     41 H11        -7.2807   -2.2862    8.3294 H         1 <0>         0.0770
     42 H12        -8.7209   -4.2058    9.1976 H         1 <0>         0.0715
     43 H13        -8.9217   -3.8466    7.4661 H         1 <0>         0.0683
     44 H14        -7.0058   -5.9680    8.5219 H         1 <0>         0.0644
     45 H15        -8.6799   -6.3212    8.0312 H         1 <0>         0.0677
     46 H16        -8.2473   -5.5852    5.7603 H         1 <0>         0.0701
     47 H17        -6.9260   -6.6934    6.2116 H         1 <0>         0.0700
     48 H18        -6.3048   -5.9417    3.7478 H         1 <0>         0.0841
     49 H19        -5.0211   -4.9161    3.0633 H         1 <0>         0.0771
     50 H20        -3.3483   -6.0521    4.4984 H         1 <0>         0.0946
     51 H21        -4.6320   -7.0777    5.1829 H         1 <0>         0.0977
     52 H22        -2.7646   -8.6408    4.0286 H         1 <0>         0.4021
     53 H23        -3.1985   -9.1305    2.4811 H         1 <0>         0.4016
     54 H24        -4.3369    1.6398    4.7288 H         1 <0>         0.4211
@<TRIPOS>BOND
     1    1    2 1
     2    1   32 1
     3    1   33 1
     4    1   34 1
     5    2    3 1
     6    2   35 1
     7    3    4 2
     8    3    5 2
     9    3    6 1
    10    6   11 ar
    11    6    7 ar
    12    7    8 ar
    13    7   36 1
    14    8    9 ar
    15    8   37 1
    16    9   31 1
    17    9   10 ar
    18   10   11 ar
    19   10   12 1
    20   11   38 1
    21   12   13 2
    22   12   29 1
    23   13   14 1
    24   13   39 1
    25   14   18 1
    26   14   15 2
    27   15   16 1
    28   15   24 1
    29   16   23 1
    30   16   17 2
    31   17   18 1
    32   17   20 1
    33   18   19 1
    34   20   21 1
    35   20   40 1
    36   20   41 1
    37   21   22 1
    38   21   42 1
    39   21   43 1
    40   22   23 1
    41   22   44 1
    42   22   45 1
    43   23   46 1
    44   23   47 1
    45   24   25 1
    46   24   48 1
    47   24   49 1
    48   25   26 1
    49   25   50 1
    50   25   51 1
    51   26   27 2
    52   26   28 am
    53   28   52 1
    54   28   53 1
    55   29   30 2
    56   29   31 am
    57   31   54 1
@<TRIPOS>MOLECULE
CHEMBL293132
   76    79     0     0     0
SMALL
USER_CHARGES

@<TRIPOS>ATOM
      1 C1          0.1284    1.4492    0.2097 C.3       1 <0>        -0.1879
      2 C2          0.0190   -0.0668    0.0349 C.3       1 <0>        -0.0166
      3 N1          0.5762   -0.4508   -1.2689 N.4       1 <0>        -0.3863
      4 C3          2.0192   -0.1759   -1.2850 C.3       1 <0>        -0.0148
      5 C4          2.5730   -0.4396   -2.6866 C.3       1 <0>        -0.1885
      6 C5          0.3482   -1.8842   -1.4959 C.3       1 <0>        -0.0140
      7 C6         -1.1545   -2.1508   -1.6035 C.3       1 <0>        -0.1435
      8 C7         -1.3919   -3.6437   -1.8399 C.3       1 <0>        -0.1330
      9 C8         -2.8947   -3.9103   -1.9475 C.3       1 <0>         0.1392
     10 N2         -3.1220   -5.3397   -2.1738 N.pl3     1 <0>        -0.6987
     11 C9         -4.4104   -5.8223   -2.3045 C.ar      1 <0>         0.5908
     12 N3         -5.4247   -4.9636   -2.2256 N.ar      1 <0>        -0.5733
     13 C10        -6.6744   -5.3647   -2.3425 C.ar      1 <0>         0.2661
     14 C11        -6.9227   -6.7316   -2.5548 C.ar      1 <0>        -0.2905
     15 C12        -8.2262   -7.2370   -2.6900 C.ar      1 <0>         0.0477
     16 C13        -8.3767   -8.5988   -2.8974 C.ar      1 <0>        -0.1604
     17 C14        -7.2317   -9.4211   -2.9647 C.ar      1 <0>         0.4874
     18 N4         -6.0190   -8.9233   -2.8344 N.ar      1 <0>        -0.4755
     19 C15        -5.8180   -7.6196   -2.6337 C.ar      1 <0>         0.4312
     20 N5         -4.5844   -7.1144   -2.5077 N.ar      1 <0>        -0.5595
     21 N6         -7.3868  -10.7841   -3.1724 N.am      1 <0>        -0.6587
     22 C16        -6.3034  -11.5831   -3.2392 C.2       1 <0>         0.6917
     23 O1         -5.1904  -11.1095   -3.1175 O.2       1 <0>        -0.5088
     24 N7         -6.4540  -12.9071   -3.4409 N.am      1 <0>        -0.7371
     25 C17        -5.2765  -13.7756   -3.5135 C.3       1 <0>         0.1648
     26 C18        -4.8584  -14.1872   -2.1005 C.3       1 <0>        -0.1300
     27 C19        -3.6285  -15.0942   -2.1763 C.3       1 <0>        -0.1170
     28 C20        -3.9658  -16.3435   -2.9926 C.3       1 <0>        -0.1232
     29 C21        -4.3839  -15.9320   -4.4057 C.3       1 <0>        -0.1159
     30 C22        -5.6137  -15.0249   -4.3298 C.3       1 <0>        -0.1266
     31 C23        -9.7293   -9.1872   -3.0467 C.ar      1 <0>        -0.0441
     32 C24       -10.4260   -9.6352   -1.9243 C.ar      1 <0>        -0.0129
     33 C25       -11.6860  -10.1820   -2.0701 C.ar      1 <0>        -0.1036
     34 C26       -12.2571  -10.2858   -3.3255 C.ar      1 <0>        -0.0814
     35 C27       -11.5713   -9.8438   -4.4424 C.ar      1 <0>        -0.1037
     36 C28       -10.3130   -9.2898   -4.3094 C.ar      1 <0>        -0.0130
     37 Cl1        -9.4567   -8.7290   -5.7116 Cl        1 <0>        -0.0433
     38 Cl2        -9.7106   -9.5064   -0.3478 Cl        1 <0>        -0.0434
     39 H1          1.1790    1.7329    0.2727 H         1 <0>         0.0803
     40 H2         -0.3320    1.9475   -0.6434 H         1 <0>         0.0797
     41 H3         -0.3838    1.7474    1.1245 H         1 <0>         0.1060
     42 H4          0.5754   -0.5652    0.8288 H         1 <0>         0.1292
     43 H5         -1.0286   -0.3635    0.0840 H         1 <0>         0.1324
     44 H6          2.1936    0.8657   -1.0153 H         1 <0>         0.1319
     45 H7          2.5208   -0.8258   -0.5679 H         1 <0>         0.1290
     46 H8          1.9971    0.1280   -3.4175 H         1 <0>         0.0796
     47 H9          3.6177   -0.1312   -2.7284 H         1 <0>         0.1060
     48 H10         2.4989   -1.5034   -2.9124 H         1 <0>         0.0805
     49 H11         0.8383   -2.1880   -2.4209 H         1 <0>         0.1335
     50 H12         0.7596   -2.4539   -0.6626 H         1 <0>         0.1307
     51 H13        -1.6446   -1.8469   -0.6785 H         1 <0>         0.0912
     52 H14        -1.5658   -1.5811   -2.4368 H         1 <0>         0.0915
     53 H15        -0.9019   -3.9475   -2.7649 H         1 <0>         0.0829
     54 H16        -0.9806   -4.2134   -1.0066 H         1 <0>         0.0827
     55 H17        -3.3848   -3.6064   -1.0225 H         1 <0>         0.0709
     56 H18        -3.3060   -3.3406   -2.7808 H         1 <0>         0.0714
     57 H19        -2.3683   -5.9475   -2.2320 H         1 <0>         0.4173
     58 H20        -7.4894   -4.6591   -2.2764 H         1 <0>         0.1809
     59 H21        -9.0849   -6.5843   -2.6339 H         1 <0>         0.1528
     60 H22        -8.2748  -11.1620   -3.2695 H         1 <0>         0.4136
     61 H23        -7.3421  -13.2850   -3.5380 H         1 <0>         0.3954
     62 H24        -4.4579  -13.2385   -3.9927 H         1 <0>         0.0906
     63 H25        -4.6181  -13.2971   -1.5189 H         1 <0>         0.0677
     64 H26        -5.6769  -14.7242   -1.6213 H         1 <0>         0.0632
     65 H27        -2.8100  -14.5571   -2.6555 H         1 <0>         0.0646
     66 H28        -3.3307  -15.3874   -1.1697 H         1 <0>         0.0653
     67 H29        -3.0897  -16.9897   -3.0467 H         1 <0>         0.0652
     68 H30        -4.7844  -16.8806   -2.5135 H         1 <0>         0.0632
     69 H31        -3.5653  -15.3949   -4.8849 H         1 <0>         0.0658
     70 H32        -4.6242  -16.8220   -4.9872 H         1 <0>         0.0691
     71 H33        -6.4323  -15.5620   -3.8507 H         1 <0>         0.0689
     72 H34        -5.9116  -14.7317   -5.3365 H         1 <0>         0.0694
     73 H35       -12.2263  -10.5296   -1.2019 H         1 <0>         0.1466
     74 H36       -13.2426  -10.7141   -3.4343 H         1 <0>         0.1484
     75 H37       -12.0225   -9.9278   -5.4201 H         1 <0>         0.1466
     76 H38         0.1244    0.0811   -1.9976 H         1 <0>         0.4222
@<TRIPOS>BOND
     1    1    2 1
     2    1   39 1
     3    1   40 1
     4    1   41 1
     5    2    3 1
     6    2   42 1
     7    2   43 1
     8    3    4 1
     9    3    6 1
    10    3   76 1
    11    4    5 1
    12    4   44 1
    13    4   45 1
    14    5   46 1
    15    5   47 1
    16    5   48 1
    17    6    7 1
    18    6   49 1
    19    6   50 1
    20    7    8 1
    21    7   51 1
    22    7   52 1
    23    8    9 1
    24    8   53 1
    25    8   54 1
    26    9   10 1
    27    9   55 1
    28    9   56 1
    29   10   11 1
    30   10   57 1
    31   11   20 ar
    32   11   12 ar
    33   12   13 ar
    34   13   14 ar
    35   13   58 1
    36   14   19 ar
    37   14   15 ar
    38   15   16 ar
    39   15   59 1
    40   16   17 ar
    41   16   31 1
    42   17   18 ar
    43   17   21 1
    44   18   19 ar
    45   19   20 ar
    46   21   22 am
    47   21   60 1
    48   22   23 2
    49   22   24 am
    50   24   25 1
    51   24   61 1
    52   25   30 1
    53   25   26 1
    54   25   62 1
    55   26   27 1
    56   26   63 1
    57   26   64 1
    58   27   28 1
    59   27   65 1
    60   27   66 1
    61   28   29 1
    62   28   67 1
    63   28   68 1
    64   29   30 1
    65   29   69 1
    66   29   70 1
    67   30   71 1
    68   30   72 1
    69   31   36 ar
    70   31   32 ar
    71   32   33 ar
    72   32   38 1
    73   33   34 ar
    74   33   73 1
    75   34   35 ar
    76   34   74 1
    77   35   36 ar
    78   35   75 1
    79   36   37 1
@<TRIPOS>MOLECULE
CHEMBL150894
   61    66     0     0     0
SMALL
USER_CHARGES

@<TRIPOS>ATOM
      1 C1         -0.0187    1.5258    0.0104 C.3       1 <0>        -0.1762
      2 C2          0.0021   -0.0041    0.0020 C.3       1 <0>         0.0801
      3 C3          0.7182   -0.4975   -1.2568 C.3       1 <0>        -0.1509
      4 O1          0.6932   -0.4774    1.1597 O.3       1 <0>        -0.3764
      5 C4         -0.1498   -0.6889    2.2940 C.3       1 <0>         0.1077
      6 C5          0.6792   -1.1848    3.4506 C.ar      1 <0>        -0.1155
      7 C6          0.8758   -2.5460    3.6262 C.ar      1 <0>        -0.0595
      8 C7          1.6314   -3.0154    4.6790 C.ar      1 <0>        -0.1382
      9 C8          2.2057   -2.1212    5.5775 C.ar      1 <0>         0.1484
     10 C9          2.0061   -0.7446    5.3979 C.ar      1 <0>        -0.0985
     11 C10         1.2442   -0.2834    4.3269 C.ar      1 <0>        -0.0375
     12 C11         2.7281   -0.0710    6.4936 C.ar      1 <0>        -0.0849
     13 C12         2.9009    1.2578    6.8479 C.ar      1 <0>        -0.0183
     14 C13         3.6571    1.5950    7.9667 C.ar      1 <0>        -0.1736
     15 C14         4.2505    0.5725    8.7443 C.ar      1 <0>         0.0572
     16 C15         4.0727   -0.7532    8.3842 C.ar      1 <0>        -0.1278
     17 C16         3.3180   -1.0895    7.2652 C.ar      1 <0>         0.2001
     18 N1          2.9932   -2.3059    6.7000 N.pl3     1 <0>        -0.4952
     19 C17         3.4216   -3.6085    7.2157 C.3       1 <0>         0.1137
     20 C18         4.7557   -3.9969    6.5752 C.3       1 <0>        -0.1428
     21 C19         5.2032   -5.3572    7.1138 C.3       1 <0>         0.0799
     22 O2          6.4492   -5.7200    6.5156 O.3       1 <0>        -0.5718
     23 C20         4.8136   -1.6036    9.3881 C.3       1 <0>        -0.0353
     24 C21         5.4388   -0.6402   10.3667 C.ar      1 <0>        -0.0846
     25 C22         5.0903    0.6473    9.9636 C.ar      1 <0>        -0.0717
     26 C23         5.5429    1.7419   10.7037 C.ar      1 <0>        -0.0800
     27 C24         6.3265    1.5408   11.8209 C.ar      1 <0>        -0.1263
     28 C25         6.6672    0.2587   12.2124 C.ar      1 <0>        -0.1026
     29 C26         6.2220   -0.8311   11.4842 C.ar      1 <0>        -0.1099
     30 C27         3.6671    3.0605    8.0966 C.2       1 <0>         0.5679
     31 O3          4.2418    3.6760    8.9739 O.2       1 <0>        -0.5242
     32 N2          2.9515    3.6225    7.1072 N.am      1 <0>        -0.7241
     33 C28         2.4172    2.5568    6.2516 C.3       1 <0>         0.1402
     34 H1          1.0039    1.9031    0.0027 H         1 <0>         0.0642
     35 H2         -0.5459    1.8868   -0.8726 H         1 <0>         0.0655
     36 H3         -0.5289    1.8773    0.9072 H         1 <0>         0.0558
     37 H4         -1.0205   -0.3814    0.0098 H         1 <0>         0.0600
     38 H5          1.7408   -0.1202   -1.2645 H         1 <0>         0.0638
     39 H6          0.7330   -1.5874   -1.2628 H         1 <0>         0.0613
     40 H7          0.1910   -0.1364   -2.1398 H         1 <0>         0.0694
     41 H8         -0.6318    0.2495    2.5684 H         1 <0>         0.0571
     42 H9         -0.9106   -1.4298    2.0482 H         1 <0>         0.0584
     43 H10         0.4325   -3.2447    2.9321 H         1 <0>         0.1315
     44 H11         1.7776   -4.0778    4.8069 H         1 <0>         0.1266
     45 H12         1.0936    0.7767    4.1859 H         1 <0>         0.1270
     46 H13         3.5415   -3.5494    8.2975 H         1 <0>         0.0932
     47 H14         2.6701   -4.3601    6.9739 H         1 <0>         0.0946
     48 H15         4.6359   -4.0559    5.4934 H         1 <0>         0.0797
     49 H16         5.5073   -3.2453    6.8170 H         1 <0>         0.0783
     50 H17         5.3230   -5.2982    8.1956 H         1 <0>         0.0496
     51 H18         4.4516   -6.1088    6.8720 H         1 <0>         0.0495
     52 H19         6.7939   -6.5736    6.8115 H         1 <0>         0.3845
     53 H20         4.1188   -2.2657    9.9048 H         1 <0>         0.0982
     54 H21         5.5874   -2.1863    8.8884 H         1 <0>         0.0997
     55 H22         5.2798    2.7448   10.4013 H         1 <0>         0.1517
     56 H23         6.6758    2.3882   12.3923 H         1 <0>         0.1276
     57 H24         7.2816    0.1077   13.0876 H         1 <0>         0.1277
     58 H25         6.4887   -1.8313   11.7921 H         1 <0>         0.1249
     59 H26         2.8113    4.5739    6.9803 H         1 <0>         0.4270
     60 H27         2.7956    2.6668    5.2354 H         1 <0>         0.1020
     61 H28         1.3276    2.5867    6.2518 H         1 <0>         0.1014
@<TRIPOS>BOND
     1    1    2 1
     2    1   34 1
     3    1   35 1
     4    1   36 1
     5    2    3 1
     6    2    4 1
     7    2   37 1
     8    3   38 1
     9    3   39 1
    10    3   40 1
    11    4    5 1
    12    5    6 1
    13    5   41 1
    14    5   42 1
    15    6   11 ar
    16    6    7 ar
    17    7    8 ar
    18    7   43 1
    19    8    9 ar
    20    8   44 1
    21    9   18 1
    22    9   10 ar
    23   10   11 ar
    24   10   12 1
    25   11   45 1
    26   12   17 ar
    27   12   13 ar
    28   13   33 1
    29   13   14 ar
    30   14   15 ar
    31   14   30 1
    32   15   25 1
    33   15   16 ar
    34   16   17 ar
    35   16   23 1
    36   17   18 1
    37   18   19 1
    38   19   20 1
    39   19   46 1
    40   19   47 1
    41   20   21 1
    42   20   48 1
    43   20   49 1
    44   21   22 1
    45   21   50 1
    46   21   51 1
    47   22   52 1
    48   23   24 1
    49   23   53 1
    50   23   54 1
    51   24   29 ar
    52   24   25 ar
    53   25   26 ar
    54   26   27 ar
    55   26   55 1
    56   27   28 ar
    57   27   56 1
    58   28   29 ar
    59   28   57 1
    60   29   58 1
    61   30   31 2
    62   30   32 am
    63   32   33 1
    64   32   59 1
    65   33   60 1
    66   33   61 1
@<TRIPOS>MOLECULE
CHEMBL189584
   80    82     0     0     0
SMALL
USER_CHARGES

@<TRIPOS>ATOM
      1 C1          0.1284    1.4492    0.2097 C.3       1 <0>        -0.1880
      2 C2          0.0190   -0.0668    0.0349 C.3       1 <0>        -0.0166
      3 N1          0.5762   -0.4508   -1.2689 N.4       1 <0>        -0.3863
      4 C3          2.0192   -0.1759   -1.2850 C.3       1 <0>        -0.0149
      5 C4          2.5730   -0.4396   -2.6866 C.3       1 <0>        -0.1885
      6 C5          0.3482   -1.8842   -1.4959 C.3       1 <0>        -0.0140
      7 C6         -1.1545   -2.1508   -1.6035 C.3       1 <0>        -0.1435
      8 C7         -1.3919   -3.6437   -1.8399 C.3       1 <0>        -0.1330
      9 C8         -2.8947   -3.9103   -1.9475 C.3       1 <0>         0.1392
     10 N2         -3.1220   -5.3397   -2.1738 N.pl3     1 <0>        -0.6990
     11 C9         -4.4103   -5.8223   -2.3045 C.ar      1 <0>         0.5901
     12 N3         -5.4246   -4.9635   -2.2256 N.ar      1 <0>        -0.5739
     13 C10        -6.6743   -5.3645   -2.3430 C.ar      1 <0>         0.2654
     14 C11        -6.9226   -6.7315   -2.5556 C.ar      1 <0>        -0.2918
     15 C12        -8.2260   -7.2367   -2.6914 C.ar      1 <0>         0.0392
     16 C13        -8.3765   -8.5985   -2.8991 C.ar      1 <0>        -0.1549
     17 C14        -7.2316   -9.4207   -2.9663 C.ar      1 <0>         0.4783
     18 N4         -6.0189   -8.9230   -2.8360 N.ar      1 <0>        -0.4759
     19 C15        -5.8179   -7.6194   -2.6345 C.ar      1 <0>         0.4281
     20 N5         -4.5843   -7.1143   -2.5077 N.ar      1 <0>        -0.5592
     21 N6         -7.3867  -10.7836   -3.1739 N.am      1 <0>        -0.6624
     22 C16        -6.3035  -11.5827   -3.2406 C.2       1 <0>         0.6910
     23 O1         -5.1904  -11.1092   -3.1189 O.2       1 <0>        -0.5066
     24 N7         -6.4541  -12.9068   -3.4423 N.am      1 <0>        -0.7339
     25 C17        -5.2766  -13.7753   -3.5148 C.3       1 <0>         0.1875
     26 C18        -4.4967  -13.6879   -2.2014 C.3       1 <0>        -0.1659
     27 C19        -5.7223  -15.2203   -3.7480 C.3       1 <0>        -0.1566
     28 C20        -4.3811  -13.3250   -4.6707 C.3       1 <0>        -0.1658
     29 C21        -9.7293   -9.1869   -3.0489 C.ar      1 <0>         0.0346
     30 C22       -10.0067  -10.0364   -4.1179 C.ar      1 <0>        -0.1988
     31 C23       -11.2716  -10.5849   -4.2547 C.ar      1 <0>         0.1793
     32 C24       -12.2614  -10.2891   -3.3289 C.ar      1 <0>        -0.2946
     33 C25       -11.9887   -9.4433   -2.2637 C.ar      1 <0>         0.1783
     34 C26       -10.7243   -8.8960   -2.1178 C.ar      1 <0>        -0.1729
     35 O2        -12.9614   -9.1553   -1.3594 O.3       1 <0>        -0.3101
     36 C27       -14.2401   -9.7583   -1.5677 C.3       1 <0>         0.0242
     37 O3        -11.5432  -11.4132   -5.2973 O.3       1 <0>        -0.3102
     38 C28       -12.8679  -11.9430   -5.3770 C.3       1 <0>         0.0241
     39 H1          1.1790    1.7329    0.2727 H         1 <0>         0.0803
     40 H2         -0.3320    1.9475   -0.6434 H         1 <0>         0.0797
     41 H3         -0.3838    1.7474    1.1245 H         1 <0>         0.1060
     42 H4          0.5754   -0.5652    0.8288 H         1 <0>         0.1292
     43 H5         -1.0286   -0.3635    0.0840 H         1 <0>         0.1325
     44 H6          2.1936    0.8657   -1.0153 H         1 <0>         0.1319
     45 H7          2.5208   -0.8258   -0.5679 H         1 <0>         0.1290
     46 H8          2.4989   -1.5034   -2.9124 H         1 <0>         0.0806
     47 H9          1.9971    0.1280   -3.4175 H         1 <0>         0.0796
     48 H10         3.6177   -0.1312   -2.7284 H         1 <0>         0.1059
     49 H11         0.8383   -2.1880   -2.4209 H         1 <0>         0.1335
     50 H12         0.7596   -2.4539   -0.6626 H         1 <0>         0.1308
     51 H13        -1.6446   -1.8469   -0.6785 H         1 <0>         0.0912
     52 H14        -1.5658   -1.5811   -2.4368 H         1 <0>         0.0915
     53 H15        -0.9019   -3.9475   -2.7649 H         1 <0>         0.0829
     54 H16        -0.9806   -4.2134   -1.0066 H         1 <0>         0.0827
     55 H17        -3.3848   -3.6064   -1.0225 H         1 <0>         0.0709
     56 H18        -3.3060   -3.3406   -2.7808 H         1 <0>         0.0713
     57 H19        -2.3683   -5.9475   -2.2320 H         1 <0>         0.4172
     58 H20        -7.4893   -4.6589   -2.2770 H         1 <0>         0.1815
     59 H21        -9.0846   -6.5840   -2.6353 H         1 <0>         0.1565
     60 H22        -8.2748  -11.1615   -3.2710 H         1 <0>         0.4184
     61 H23        -7.3422  -13.2846   -3.5394 H         1 <0>         0.3956
     62 H24        -5.1347  -14.0087   -1.3779 H         1 <0>         0.0531
     63 H25        -3.6206  -14.3341   -2.2554 H         1 <0>         0.0645
     64 H26        -4.1792  -12.6584   -2.0353 H         1 <0>         0.0804
     65 H27        -6.2779  -15.2826   -4.6837 H         1 <0>         0.0633
     66 H28        -4.8462  -15.8665   -3.8020 H         1 <0>         0.0774
     67 H29        -6.3603  -15.5411   -2.9245 H         1 <0>         0.0629
     68 H30        -4.0636  -12.2956   -4.5045 H         1 <0>         0.0804
     69 H31        -3.5050  -13.9712   -4.7247 H         1 <0>         0.0644
     70 H32        -4.9367  -13.3873   -5.6064 H         1 <0>         0.0535
     71 H33        -9.2367  -10.2669   -4.8393 H         1 <0>         0.1355
     72 H34       -13.2466  -10.7179   -3.4378 H         1 <0>         0.1392
     73 H35       -10.5113   -8.2411   -1.2859 H         1 <0>         0.1380
     74 H36       -14.1370  -10.8433   -1.5515 H         1 <0>         0.0579
     75 H37       -14.9222   -9.4462   -0.7769 H         1 <0>         0.1060
     76 H38       -14.6363   -9.4453   -2.5337 H         1 <0>         0.0580
     77 H39       -13.0821  -12.5226   -4.4791 H         1 <0>         0.0583
     78 H40       -13.5824  -11.1240   -5.4599 H         1 <0>         0.0581
     79 H41       -12.9498  -12.5866   -6.2529 H         1 <0>         0.1061
     80 H42         0.1244    0.0811   -1.9976 H         1 <0>         0.4221
@<TRIPOS>BOND
     1    1    2 1
     2    1   39 1
     3    1   40 1
     4    1   41 1
     5    2    3 1
     6    2   42 1
     7    2   43 1
     8    3    4 1
     9    3    6 1
    10    3   80 1
    11    4    5 1
    12    4   44 1
    13    4   45 1
    14    5   46 1
    15    5   47 1
    16    5   48 1
    17    6    7 1
    18    6   49 1
    19    6   50 1
    20    7    8 1
    21    7   51 1
    22    7   52 1
    23    8    9 1
    24    8   53 1
    25    8   54 1
    26    9   10 1
    27    9   55 1
    28    9   56 1
    29   10   11 1
    30   10   57 1
    31   11   20 ar
    32   11   12 ar
    33   12   13 ar
    34   13   14 ar
    35   13   58 1
    36   14   19 ar
    37   14   15 ar
    38   15   16 ar
    39   15   59 1
    40   16   17 ar
    41   16   29 1
    42   17   18 ar
    43   17   21 1
    44   18   19 ar
    45   19   20 ar
    46   21   22 am
    47   21   60 1
    48   22   23 2
    49   22   24 am
    50   24   25 1
    51   24   61 1
    52   25   26 1
    53   25   27 1
    54   25   28 1
    55   26   62 1
    56   26   63 1
    57   26   64 1
    58   27   65 1
    59   27   66 1
    60   27   67 1
    61   28   68 1
    62   28   69 1
    63   28   70 1
    64   29   34 ar
    65   29   30 ar
    66   30   31 ar
    67   30   71 1
    68   31   32 ar
    69   31   37 1
    70   32   33 ar
    71   32   72 1
    72   33   34 ar
    73   33   35 1
    74   34   73 1
    75   35   36 1
    76   36   74 1
    77   36   75 1
    78   36   76 1
    79   37   38 1
    80   38   77 1
    81   38   78 1
    82   38   79 1
@<TRIPOS>MOLECULE
CHEMBL522892
   51    55     0     0     0
SMALL
USER_CHARGES

@<TRIPOS>ATOM
      1 C1          0.8051    0.2324   -1.4077 C.3       1 <0>        -0.0469
      2 N1          0.6955   -1.2174   -1.1983 N.4       1 <0>        -0.3836
      3 C2         -0.7220   -1.5942   -1.1286 C.3       1 <0>        -0.0238
      4 C3         -0.8398   -3.1185   -1.0252 C.3       1 <0>         0.1007
      5 N2         -0.0339   -3.5719    0.1190 N.pl3     1 <0>        -0.6429
      6 C4          1.3580   -3.1056    0.2148 C.3       1 <0>         0.0996
      7 C5          1.3720   -1.5820    0.0529 C.3       1 <0>        -0.0227
      8 C6         -0.5760   -4.4220    1.0884 C.ar      1 <0>         0.2062
      9 C7         -1.9255   -4.7646    1.0342 C.ar      1 <0>        -0.1830
     10 C8         -2.4703   -5.5930    1.9732 C.ar      1 <0>        -0.0215
     11 C9         -1.6721   -6.1058    3.0008 C.ar      1 <0>         0.0284
     12 C10        -0.3102   -5.7623    3.0579 C.ar      1 <0>         0.0883
     13 C11         0.2327   -4.9242    2.0953 C.ar      1 <0>        -0.1814
     14 N3          0.2069   -6.4109    4.1649 N.pl3     1 <0>        -0.5840
     15 H1          1.1247   -6.3750    4.4767 H         1 <0>         0.4352
     16 C12        -0.8212   -7.1137    4.7396 C.2       1 <0>         0.3897
     17 N4         -1.9231   -6.9297    4.0499 N.2       1 <0>        -0.5167
     18 C13        -0.7066   -7.9483    5.9473 C.2       1 <0>        -0.2897
     19 C14        -1.7912   -8.7175    6.3752 C.2       1 <0>         0.3714
     20 C15        -1.6270   -9.5324    7.5845 C.ar      1 <0>        -0.1860
     21 C16        -0.3945   -9.5089    8.2620 C.ar      1 <0>         0.2412
     22 C17        -0.2309  -10.2780    9.4084 C.ar      1 <0>        -0.1738
     23 C18        -1.2716  -11.0554    9.8720 C.ar      1 <0>        -0.0195
     24 C19        -2.4877  -11.0809    9.2068 C.ar      1 <0>        -0.1807
     25 C20        -2.6747  -10.3254    8.0671 C.ar      1 <0>         0.1693
     26 F1         -3.8609  -10.3517    7.4210 F         1 <0>        -0.1207
     27 N5          0.6390   -8.7260    7.7867 N.am      1 <0>        -0.6329
     28 H2          1.4842   -8.7182    8.2626 H         1 <0>         0.4234
     29 C21         0.5046   -7.9802    6.6776 C.2       1 <0>         0.5800
     30 O1          1.4476   -7.3102    6.2941 O.2       1 <0>        -0.5593
     31 N6         -2.9786   -8.7110    5.6835 N.pl3     1 <0>        -0.8071
     32 H3          1.8569    0.5124   -1.4676 H         1 <0>         0.1245
     33 H4          0.3033    0.5044   -2.3363 H         1 <0>         0.1249
     34 H5          0.3366    0.7563   -0.5745 H         1 <0>         0.1214
     35 H6         -1.1777   -1.1342   -0.2517 H         1 <0>         0.1326
     36 H7         -1.2341   -1.2502   -2.0271 H         1 <0>         0.1407
     37 H8         -1.8827   -3.3957   -0.8715 H         1 <0>         0.1284
     38 H9         -0.4668   -3.5776   -1.9408 H         1 <0>         0.0875
     39 H10         1.7681   -3.3743    1.1883 H         1 <0>         0.1252
     40 H11         1.9529   -3.5634   -0.5755 H         1 <0>         0.0872
     41 H12         2.4029   -1.2289    0.0249 H         1 <0>         0.1401
     42 H13         0.8530   -1.1223    0.8940 H         1 <0>         0.1324
     43 H14        -2.5461   -4.3713    0.2427 H         1 <0>         0.1289
     44 H15        -3.5176   -5.8518    1.9226 H         1 <0>         0.1348
     45 H16         1.2794   -4.6608    2.1329 H         1 <0>         0.1222
     46 H17         0.7114  -10.2670    9.9359 H         1 <0>         0.1489
     47 H18        -1.1375  -11.6511   10.7629 H         1 <0>         0.1511
     48 H19        -3.2928  -11.6948    9.5826 H         1 <0>         0.1510
     49 H20        -2.9880   -8.4943    4.7380 H         1 <0>         0.4268
     50 H21        -3.8074   -8.9232    6.1406 H         1 <0>         0.4097
     51 H22         1.1321   -1.7012   -1.9686 H         1 <0>         0.4245
@<TRIPOS>BOND
     1    1    2 1
     2    1   32 1
     3    1   33 1
     4    1   34 1
     5    2    7 1
     6    2    3 1
     7    2   51 1
     8    3    4 1
     9    3   35 1
    10    3   36 1
    11    4    5 1
    12    4   37 1
    13    4   38 1
    14    5    6 1
    15    5    8 1
    16    6    7 1
    17    6   39 1
    18    6   40 1
    19    7   41 1
    20    7   42 1
    21    8   13 ar
    22    8    9 ar
    23    9   10 ar
    24    9   43 1
    25   10   11 ar
    26   10   44 1
    27   11   17 1
    28   11   12 ar
    29   12   13 ar
    30   12   14 1
    31   13   45 1
    32   14   15 1
    33   14   16 1
    34   16   17 2
    35   16   18 1
    36   18   29 1
    37   18   19 2
    38   19   20 1
    39   19   31 1
    40   20   25 ar
    41   20   21 ar
    42   21   22 ar
    43   21   27 1
    44   22   23 ar
    45   22   46 1
    46   23   24 ar
    47   23   47 1
    48   24   25 ar
    49   24   48 1
    50   25   26 1
    51   27   28 1
    52   27   29 am
    53   29   30 2
    54   31   49 1
    55   31   50 1
@<TRIPOS>MOLECULE
CHEMBL522892__1
   50    54     0     0     0
SMALL
USER_CHARGES

@<TRIPOS>ATOM
      1 C1          0.8730    0.3059   -1.4180 C.3       1 <0>         0.0243
      2 N1          0.7577   -1.1443   -1.2136 N.3       1 <0>        -0.5426
      3 C2         -0.6486   -1.5684   -1.2321 C.3       1 <0>         0.0377
      4 C3         -0.7177   -3.0988   -1.1981 C.3       1 <0>         0.1263
      5 N2          0.0607   -3.5761   -0.0450 N.pl3     1 <0>        -0.6287
      6 C4          1.4376   -3.0848    0.1165 C.3       1 <0>         0.1258
      7 C5          1.4218   -1.5549    0.0307 C.3       1 <0>         0.0388
      8 C6         -0.4939   -4.4730    0.8738 C.ar      1 <0>         0.2365
      9 C7         -1.8329   -4.8416    0.7616 C.ar      1 <0>        -0.1892
     10 C8         -2.3899   -5.7158    1.6508 C.ar      1 <0>        -0.0222
     11 C9         -1.6146   -6.2498    2.6851 C.ar      1 <0>         0.0050
     12 C10        -0.2632   -5.8802    2.8006 C.ar      1 <0>         0.1008
     13 C11         0.2922   -4.9955    1.8882 C.ar      1 <0>        -0.2075
     14 N3          0.2314   -6.5589    3.8998 N.pl3     1 <0>        -0.5864
     15 H1          1.1375   -6.5154    4.2434 H         1 <0>         0.4318
     16 C12        -0.7992   -7.3041    4.4133 C.2       1 <0>         0.3648
     17 N4         -1.8816   -7.1175    3.6942 N.2       1 <0>        -0.5107
     18 C13        -0.7058   -8.1807    5.5928 C.2       1 <0>        -0.2737
     19 C14        -1.7866   -8.9879    5.9555 C.2       1 <0>         0.3579
     20 C15        -1.6442   -9.8438    7.1389 C.ar      1 <0>        -0.1804
     21 C16        -0.4354   -9.8200    7.8579 C.ar      1 <0>         0.2398
     22 C17        -0.2926  -10.6278    8.9801 C.ar      1 <0>        -0.1747
     23 C18        -1.3304  -11.4436    9.3796 C.ar      1 <0>        -0.0248
     24 C19        -2.5232  -11.4696    8.6734 C.ar      1 <0>        -0.1838
     25 C20        -2.6894  -10.6760    7.5566 C.ar      1 <0>         0.1678
     26 F1         -3.8529  -10.7029    6.8704 F         1 <0>        -0.1214
     27 N5          0.5956   -8.9983    7.4466 N.am      1 <0>        -0.6338
     28 H2          1.4243   -8.9907    7.9506 H         1 <0>         0.4215
     29 C21         0.4811   -8.2146    6.3618 C.2       1 <0>         0.5763
     30 O1          1.4212   -7.5111    6.0350 O.2       1 <0>        -0.5540
     31 N6         -2.9506   -8.9803    5.2249 N.pl3     1 <0>        -0.8096
     32 H3          1.9258    0.5820   -1.4762 H         1 <0>         0.0703
     33 H4          0.3729    0.5828   -2.3461 H         1 <0>         0.0703
     34 H5          0.4058    0.8287   -0.5835 H         1 <0>         0.0257
     35 H6         -1.1627   -1.1616   -0.3612 H         1 <0>         0.0389
     36 H7         -1.1269   -1.2028   -2.1408 H         1 <0>         0.0861
     37 H8         -1.7554   -3.4163   -1.0960 H         1 <0>         0.0886
     38 H9         -0.2963   -3.5049   -2.1177 H         1 <0>         0.0708
     39 H10         1.8249   -3.3932    1.0876 H         1 <0>         0.0860
     40 H11         2.0662   -3.4896   -0.6768 H         1 <0>         0.0703
     41 H12         2.4451   -1.1796    0.0378 H         1 <0>         0.0855
     42 H13         0.8789   -1.1484    0.8840 H         1 <0>         0.0386
     43 H14        -2.4358   -4.4320   -0.0353 H         1 <0>         0.1294
     44 H15        -3.4289   -5.9944    1.5554 H         1 <0>         0.1285
     45 H16         1.3310   -4.7118    1.9707 H         1 <0>         0.1216
     46 H17         0.6315  -10.6169    9.5390 H         1 <0>         0.1468
     47 H18        -1.2125  -12.0692   10.2520 H         1 <0>         0.1482
     48 H19        -3.3264  -12.1138    8.9991 H         1 <0>         0.1484
     49 H20        -2.9336   -8.7292    4.2881 H         1 <0>         0.4276
     50 H21        -3.7891   -9.2261    5.6460 H         1 <0>         0.4068
@<TRIPOS>BOND
     1    1    2 1
     2    1   32 1
     3    1   33 1
     4    1   34 1
     5    2    7 1
     6    2    3 1
     7    3    4 1
     8    3   35 1
     9    3   36 1
    10    4    5 1
    11    4   37 1
    12    4   38 1
    13    5    6 1
    14    5    8 1
    15    6    7 1
    16    6   39 1
    17    6   40 1
    18    7   41 1
    19    7   42 1
    20    8   13 ar
    21    8    9 ar
    22    9   10 ar
    23    9   43 1
    24   10   11 ar
    25   10   44 1
    26   11   17 1
    27   11   12 ar
    28   12   13 ar
    29   12   14 1
    30   13   45 1
    31   14   15 1
    32   14   16 1
    33   16   17 2
    34   16   18 1
    35   18   29 1
    36   18   19 2
    37   19   20 1
    38   19   31 1
    39   20   25 ar
    40   20   21 ar
    41   21   22 ar
    42   21   27 1
    43   22   23 ar
    44   22   46 1
    45   23   24 ar
    46   23   47 1
    47   24   25 ar
    48   24   48 1
    49   25   26 1
    50   27   28 1
    51   27   29 am
    52   29   30 2
    53   31   49 1
    54   31   50 1
@<TRIPOS>MOLECULE
CHEMBL380702
   44    48     0     0     0
SMALL
USER_CHARGES

@<TRIPOS>ATOM
      1 C1          0.3063    1.6579    0.0248 C.ar      1 <0>        -0.1616
      2 C2          1.5677    2.2353   -0.0121 C.ar      1 <0>        -0.0709
      3 C3          2.7001    1.4499   -0.0414 C.ar      1 <0>        -0.1707
      4 C4          2.5807    0.0638   -0.0336 C.ar      1 <0>         0.2080
      5 C5          1.3004   -0.5164    0.0043 C.ar      1 <0>        -0.1290
      6 C6          0.1654    0.2986    0.0331 C.ar      1 <0>        -0.0583
      7 C7          1.1813   -1.9802    0.0125 C.2       1 <0>         0.2943
      8 C8          2.3556   -2.7363   -0.0181 C.2       1 <0>        -0.2088
      9 C9          3.6092   -2.0800   -0.0555 C.2       1 <0>         0.5554
     10 N1          3.7027   -0.7400   -0.0621 N.am      1 <0>        -0.6478
     11 O1          4.6287   -2.7470   -0.0817 O.2       1 <0>        -0.5074
     12 C10         2.2897   -4.2064   -0.0110 C.2       1 <0>         0.2705
     13 N2          3.3689   -5.0438    0.0827 N.2       1 <0>        -0.5346
     14 C11         2.8785   -6.3384    0.0551 C.ar      1 <0>        -0.0773
     15 C12         3.4676   -7.5949    0.1134 C.ar      1 <0>        -0.0132
     16 C13         2.6479   -8.7077    0.0579 C.ar      1 <0>        -0.2639
     17 C14         1.2694   -8.5372   -0.0536 C.ar      1 <0>         0.3823
     18 N3          0.7305   -7.3323   -0.1074 N.ar      1 <0>        -0.5320
     19 C15         1.4815   -6.2309   -0.0574 C.ar      1 <0>         0.2432
     20 N4          1.1851   -4.9156   -0.0879 N.2       1 <0>        -0.5950
     21 N5          0.4453   -9.6568   -0.1098 N.pl3     1 <0>        -0.6252
     22 C16        -0.9803   -9.5316   -0.4522 C.3       1 <0>         0.1025
     23 C17        -1.2998  -10.5344   -1.5667 C.3       1 <0>         0.0465
     24 O2         -0.8532  -11.8341   -1.1728 O.3       1 <0>        -0.3874
     25 C18         0.5591  -11.9324   -0.9741 C.3       1 <0>         0.0472
     26 C19         0.9750  -11.0018    0.1653 C.3       1 <0>         0.0993
     27 N6         -0.0494   -2.5884    0.0495 N.pl3     1 <0>        -0.8218
     28 H1         -0.5707    2.2876    0.0517 H         1 <0>         0.1246
     29 H2          1.6630    3.3111   -0.0182 H         1 <0>         0.1263
     30 H3          3.6771    1.9092   -0.0707 H         1 <0>         0.1310
     31 H4         -0.8193   -0.1442    0.0622 H         1 <0>         0.1266
     32 H5          4.5390   -7.7004    0.1995 H         1 <0>         0.1085
     33 H6          3.0725   -9.6998    0.1004 H         1 <0>         0.1121
     34 H7         -1.5891   -9.7512    0.4249 H         1 <0>         0.0539
     35 H8         -1.1871   -8.5191   -0.7990 H         1 <0>         0.0998
     36 H9         -2.3758  -10.5560   -1.7396 H         1 <0>         0.0969
     37 H10        -0.7891  -10.2360   -2.4823 H         1 <0>         0.0513
     38 H11         0.8205  -12.9598   -0.7206 H         1 <0>         0.0980
     39 H12         1.0765  -11.6391   -1.8875 H         1 <0>         0.0526
     40 H13         2.0626  -10.9625    0.2272 H         1 <0>         0.0913
     41 H14         0.5664  -11.3720    1.1056 H         1 <0>         0.0596
     42 H15        -0.8519   -2.0534    0.1531 H         1 <0>         0.3837
     43 H16        -0.1163   -3.5530   -0.0279 H         1 <0>         0.4330
     44 H17         4.5800   -0.3270   -0.0882 H         1 <0>         0.4065
@<TRIPOS>BOND
     1    1    6 ar
     2    1    2 ar
     3    1   28 1
     4    2    3 ar
     5    2   29 1
     6    3    4 ar
     7    3   30 1
     8    4   10 1
     9    4    5 ar
    10    5    6 ar
    11    5    7 1
    12    6   31 1
    13    7    8 2
    14    7   27 1
    15    8    9 1
    16    8   12 1
    17    9   10 am
    18    9   11 2
    19   10   44 1
    20   12   20 2
    21   12   13 1
    22   13   14 1
    23   14   15 ar
    24   14   19 ar
    25   15   16 ar
    26   15   32 1
    27   16   17 ar
    28   16   33 1
    29   17   18 ar
    30   17   21 1
    31   18   19 ar
    32   19   20 1
    33   21   26 1
    34   21   22 1
    35   22   23 1
    36   22   34 1
    37   22   35 1
    38   23   24 1
    39   23   36 1
    40   23   37 1
    41   24   25 1
    42   25   26 1
    43   25   38 1
    44   25   39 1
    45   26   40 1
    46   26   41 1
    47   27   42 1
    48   27   43 1
@<TRIPOS>MOLECULE
CHEMBL380702__1
   45    49     0     0     0
SMALL
USER_CHARGES

@<TRIPOS>ATOM
      1 C1          0.1984    1.5219    0.0261 C.ar      1 <0>        -0.1506
      2 C2          1.4330    2.1547   -0.0084 C.ar      1 <0>        -0.0497
      3 C3          2.5991    1.4202   -0.0399 C.ar      1 <0>        -0.1657
      4 C4          2.5410    0.0302   -0.0367 C.ar      1 <0>         0.2165
      5 C5          1.2877   -0.6063   -0.0011 C.ar      1 <0>        -0.1505
      6 C6          0.1177    0.1576    0.0299 C.ar      1 <0>        -0.0492
      7 C7          1.2335   -2.0739    0.0022 C.2       1 <0>         0.3670
      8 C8          2.4394   -2.7769   -0.0305 C.2       1 <0>        -0.2936
      9 C9          3.6627   -2.0662   -0.0653 C.2       1 <0>         0.5781
     10 N1          3.6974   -0.7233   -0.0674 N.am      1 <0>        -0.6372
     11 O1          4.7106   -2.6878   -0.0937 O.2       1 <0>        -0.5585
     12 C10         2.4384   -4.2494   -0.0282 C.2       1 <0>         0.3862
     13 N2          1.3683   -5.0050   -0.1162 N.2       1 <0>        -0.5160
     14 C11         1.7331   -6.3106   -0.0837 C.ar      1 <0>        -0.0345
     15 C12         1.0180   -7.5134   -0.1418 C.ar      1 <0>         0.0123
     16 C13         1.7167   -8.6901   -0.0820 C.ar      1 <0>        -0.2314
     17 C14         3.1052   -8.6620    0.0339 C.ar      1 <0>         0.4371
     18 N3          3.7651   -7.5166    0.0875 N.ar      1 <0>        -0.5463
     19 H1          4.4733   -4.7332    0.1321 H         1 <0>         0.4373
     20 C15         3.1334   -6.3536    0.0333 C.ar      1 <0>         0.2911
     21 N4          3.5560   -5.0404    0.0604 N.pl3     1 <0>        -0.5708
     22 N5          3.8099   -9.8599    0.0947 N.pl3     1 <0>        -0.6111
     23 C16         5.2399   -9.8807    0.4414 C.3       1 <0>         0.0923
     24 C17         5.4516  -10.9086    1.5588 C.3       1 <0>         0.0461
     25 O2          4.8753  -12.1565    1.1657 O.3       1 <0>        -0.3795
     26 C18         3.4610  -12.1100    0.9628 C.3       1 <0>         0.0460
     27 C19         3.1460  -11.1441   -0.1796 C.3       1 <0>         0.0894
     28 N6          0.0301   -2.7365    0.0368 N.pl3     1 <0>        -0.8040
     29 H2         -0.7056    2.1122    0.0547 H         1 <0>         0.1350
     30 H3          1.4807    3.2336   -0.0110 H         1 <0>         0.1370
     31 H4          3.5548    1.9223   -0.0674 H         1 <0>         0.1400
     32 H5         -0.8464   -0.3283    0.0572 H         1 <0>         0.1329
     33 H6         -0.0583   -7.5131   -0.2313 H         1 <0>         0.1414
     34 H7          1.1943   -9.6344   -0.1240 H         1 <0>         0.1415
     35 H8          5.8256  -10.1634   -0.4333 H         1 <0>         0.0698
     36 H9          5.5482   -8.8940    0.7870 H         1 <0>         0.1017
     37 H10         6.5191  -11.0400    1.7351 H         1 <0>         0.1060
     38 H11         4.9714  -10.5575    2.4722 H         1 <0>         0.0549
     39 H12         3.0965  -13.1057    0.7103 H         1 <0>         0.1079
     40 H13         2.9736  -11.7632    1.8740 H         1 <0>         0.0565
     41 H14         2.0684  -10.9937   -0.2451 H         1 <0>         0.0963
     42 H15         3.5173  -11.5562   -1.1179 H         1 <0>         0.0763
     43 H16        -0.7955   -2.2376    0.1392 H         1 <0>         0.4010
     44 H17         0.0062   -3.7030   -0.0411 H         1 <0>         0.4324
     45 H18         4.5557   -0.2721   -0.0922 H         1 <0>         0.4187
@<TRIPOS>BOND
     1    1    6 ar
     2    1    2 ar
     3    1   29 1
     4    2    3 ar
     5    2   30 1
     6    3    4 ar
     7    3   31 1
     8    4   10 1
     9    4    5 ar
    10    5    6 ar
    11    5    7 1
    12    6   32 1
    13    7    8 2
    14    7   28 1
    15    8    9 1
    16    8   12 1
    17    9   10 am
    18    9   11 2
    19   10   45 1
    20   12   21 1
    21   12   13 2
    22   13   14 1
    23   14   15 ar
    24   14   20 ar
    25   15   16 ar
    26   15   33 1
    27   16   17 ar
    28   16   34 1
    29   17   18 ar
    30   17   22 1
    31   18   20 ar
    32   19   21 1
    33   20   21 1
    34   22   27 1
    35   22   23 1
    36   23   24 1
    37   23   35 1
    38   23   36 1
    39   24   25 1
    40   24   37 1
    41   24   38 1
    42   25   26 1
    43   26   27 1
    44   26   39 1
    45   26   40 1
    46   27   41 1
    47   27   42 1
    48   28   43 1
    49   28   44 1
@<TRIPOS>MOLECULE
CHEMBL380702__2
   45    49     0     0     0
SMALL
USER_CHARGES

@<TRIPOS>ATOM
      1 C1          0.1895    1.5492    0.0341 C.ar      1 <0>        -0.1504
      2 C2          1.4254    2.1796   -0.0007 C.ar      1 <0>        -0.0483
      3 C3          2.5900    1.4429   -0.0328 C.ar      1 <0>        -0.1661
      4 C4          2.5293    0.0529   -0.0300 C.ar      1 <0>         0.2179
      5 C5          1.2747   -0.5811    0.0058 C.ar      1 <0>        -0.1525
      6 C6          0.1062    0.1851    0.0375 C.ar      1 <0>        -0.0480
      7 C7          1.2176   -2.0485    0.0086 C.2       1 <0>         0.3746
      8 C8          2.4228   -2.7542   -0.0247 C.2       1 <0>        -0.3047
      9 C9          3.6475   -2.0454   -0.0597 C.2       1 <0>         0.5810
     10 N1          3.6842   -0.7026   -0.0614 N.am      1 <0>        -0.6372
     11 O1          4.6943   -2.6686   -0.0882 O.2       1 <0>        -0.5607
     12 C10         2.4191   -4.2258   -0.0229 C.2       1 <0>         0.4166
     13 N2          3.5324   -5.0172    0.0707 N.pl3     1 <0>        -0.5724
     14 C11         3.0974   -6.3313    0.0373 C.ar      1 <0>        -0.0614
     15 C12         3.7389   -7.5619    0.0928 C.ar      1 <0>        -0.0150
     16 C13         2.9671   -8.7082    0.0312 C.ar      1 <0>        -0.2235
     17 C14         1.5829   -8.5957   -0.0834 C.ar      1 <0>         0.4261
     18 N3          0.9937   -7.4145   -0.1345 N.ar      1 <0>        -0.5204
     19 H1          4.4510   -4.7149    0.1458 H         1 <0>         0.4356
     20 C15         1.6973   -6.2825   -0.0785 C.ar      1 <0>         0.3177
     21 N4          1.3456   -4.9808   -0.1052 N.2       1 <0>        -0.5368
     22 N5          0.8071   -9.7489   -0.1458 N.pl3     1 <0>        -0.6133
     23 C16        -0.6218   -9.6828   -0.4912 C.3       1 <0>         0.0938
     24 C17        -0.8960  -10.6940   -1.6102 C.3       1 <0>         0.0457
     25 O2         -0.3958  -11.9751   -1.2199 O.3       1 <0>        -0.3800
     26 C18         1.0190  -12.0144   -1.0182 C.3       1 <0>         0.0462
     27 C19         1.3926  -11.0714    0.1257 C.3       1 <0>         0.0901
     28 N6          0.0136   -2.7083    0.0434 N.pl3     1 <0>        -0.7990
     29 H2         -0.7133    2.1412    0.0632 H         1 <0>         0.1355
     30 H3          1.4752    3.2584   -0.0029 H         1 <0>         0.1374
     31 H4          3.5467    1.9431   -0.0604 H         1 <0>         0.1403
     32 H5         -0.8589   -0.2989    0.0649 H         1 <0>         0.1335
     33 H6          4.8135   -7.6223    0.1814 H         1 <0>         0.1359
     34 H7          3.4332   -9.6816    0.0713 H         1 <0>         0.1414
     35 H8         -1.2228   -9.9313    0.3836 H         1 <0>         0.0685
     36 H9         -0.8704   -8.6787   -0.8347 H         1 <0>         0.1035
     37 H10        -1.9697  -10.7605   -1.7858 H         1 <0>         0.1054
     38 H11        -0.3963  -10.3708   -2.5234 H         1 <0>         0.0545
     39 H12         1.3230  -13.0307   -0.7678 H         1 <0>         0.1069
     40 H13         1.5256  -11.6960   -1.9292 H         1 <0>         0.0560
     41 H14         2.4773  -10.9863    0.1904 H         1 <0>         0.0945
     42 H15         0.9978  -11.4621    1.0636 H         1 <0>         0.0752
     43 H16        -0.8109   -2.2079    0.1466 H         1 <0>         0.4019
     44 H17        -0.0122   -3.6748   -0.0352 H         1 <0>         0.4349
     45 H18         4.5433   -0.2529   -0.0859 H         1 <0>         0.4190
@<TRIPOS>BOND
     1    1    6 ar
     2    1    2 ar
     3    1   29 1
     4    2    3 ar
     5    2   30 1
     6    3    4 ar
     7    3   31 1
     8    4   10 1
     9    4    5 ar
    10    5    6 ar
    11    5    7 1
    12    6   32 1
    13    7    8 2
    14    7   28 1
    15    8    9 1
    16    8   12 1
    17    9   10 am
    18    9   11 2
    19   10   45 1
    20   12   21 2
    21   12   13 1
    22   13   14 1
    23   13   19 1
    24   14   15 ar
    25   14   20 ar
    26   15   16 ar
    27   15   33 1
    28   16   17 ar
    29   16   34 1
    30   17   18 ar
    31   17   22 1
    32   18   20 ar
    33   20   21 1
    34   22   27 1
    35   22   23 1
    36   23   24 1
    37   23   35 1
    38   23   36 1
    39   24   25 1
    40   24   37 1
    41   24   38 1
    42   25   26 1
    43   26   27 1
    44   26   39 1
    45   26   40 1
    46   27   41 1
    47   27   42 1
    48   28   43 1
    49   28   44 1
@<TRIPOS>MOLECULE
CHEMBL339856
   76    79     0     0     0
SMALL
USER_CHARGES

@<TRIPOS>ATOM
      1 C1         -0.0187    1.5258    0.0104 C.3       1 <0>        -0.1657
      2 C2          0.0021   -0.0041    0.0020 C.3       1 <0>         0.1879
      3 C3          0.7421   -0.5109    1.2415 C.3       1 <0>        -0.1656
      4 C4         -1.4333   -0.5336    0.0129 C.3       1 <0>        -0.1558
      5 N1          0.6878   -0.4765   -1.2033 N.am      1 <0>        -0.7366
      6 C5          1.9715   -0.1323   -1.4270 C.2       1 <0>         0.6938
      7 O1          2.5604    0.5703   -0.6286 O.2       1 <0>        -0.5138
      8 N2          2.6023   -0.5669   -2.5359 N.am      1 <0>        -0.6664
      9 C6          3.9247   -0.2123   -2.7663 C.ar      1 <0>         0.4500
     10 C7          4.5693   -0.6712   -3.9356 C.ar      1 <0>        -0.1611
     11 C8          5.8881   -0.3212   -4.1717 C.ar      1 <0>         0.0292
     12 C9          6.5368    0.4880   -3.2221 C.ar      1 <0>        -0.2399
     13 C10         7.8708    0.8895   -3.3824 C.ar      1 <0>         0.2200
     14 N3          8.4455    1.6459   -2.4759 N.ar      1 <0>        -0.5392
     15 C11         7.8088    2.0618   -1.3834 C.ar      1 <0>         0.4100
     16 C12         6.4944    1.7182   -1.1375 C.ar      1 <0>        -0.2406
     17 C13         5.8226    0.9111   -2.0693 C.ar      1 <0>         0.2386
     18 N4          4.5491    0.5491   -1.8926 N.ar      1 <0>        -0.4811
     19 N5          8.4837    2.8609   -0.4679 N.pl3     1 <0>        -0.7200
     20 C14         7.7998    3.3283    0.7404 C.3       1 <0>         0.1275
     21 C15         8.7592    4.1828    1.5712 C.3       1 <0>        -0.1272
     22 C16         8.0449    4.6711    2.8331 C.3       1 <0>         0.0584
     23 N6          8.9661    5.4915    3.6308 N.3       1 <0>        -0.5371
     24 C17        10.0741    4.6803    4.1558 C.3       1 <0>         0.0132
     25 C18        11.0391    5.5834    4.9285 C.3       1 <0>         0.0627
     26 O2         10.3239    6.2593    5.9663 O.3       1 <0>        -0.3855
     27 C19         9.2381    7.0593    5.4904 C.3       1 <0>         0.0629
     28 C20         8.2549    6.1711    4.7233 C.3       1 <0>         0.0169
     29 C21         3.8387   -1.5231   -4.9046 C.ar      1 <0>         0.0420
     30 C22         3.1397   -2.6438   -4.4607 C.ar      1 <0>        -0.1990
     31 C23         2.4582   -3.4378   -5.3688 C.ar      1 <0>         0.1767
     32 C24         2.4715   -3.1183   -6.7187 C.ar      1 <0>        -0.2976
     33 C25         3.1664   -2.0032   -7.1640 C.ar      1 <0>         0.1766
     34 C26         3.8449   -1.2016   -6.2604 C.ar      1 <0>        -0.1740
     35 O3          3.1769   -1.6937   -8.4872 O.3       1 <0>        -0.3103
     36 C27         2.4514   -2.5601   -9.3619 C.3       1 <0>         0.0252
     37 O4          1.7762   -4.5310   -4.9368 O.3       1 <0>        -0.3112
     38 C28         1.0960   -5.3046   -5.9272 C.3       1 <0>         0.0250
     39 H1          1.0039    1.9031    0.0027 H         1 <0>         0.0812
     40 H2         -0.5459    1.8868   -0.8726 H         1 <0>         0.0525
     41 H3         -0.5289    1.8773    0.9072 H         1 <0>         0.0633
     42 H4          0.2319   -0.1594    2.1383 H         1 <0>         0.0632
     43 H5          0.7568   -1.6008    1.2356 H         1 <0>         0.0528
     44 H6          1.7647   -0.1336    1.2338 H         1 <0>         0.0811
     45 H7         -1.9605   -0.1726   -0.8702 H         1 <0>         0.0620
     46 H8         -1.4185   -1.6235    0.0069 H         1 <0>         0.0624
     47 H9         -1.9435   -0.1821    0.9097 H         1 <0>         0.0762
     48 H10         0.2179   -1.0371   -1.8404 H         1 <0>         0.3942
     49 H11         2.1325   -1.1275   -3.1729 H         1 <0>         0.4149
     50 H12         6.4032   -0.6599   -5.0584 H         1 <0>         0.1509
     51 H13         8.4269    0.5757   -4.2534 H         1 <0>         0.1688
     52 H14         5.9925    2.0642   -0.2459 H         1 <0>         0.1414
     53 H15         9.4075    3.1089   -0.6290 H         1 <0>         0.4061
     54 H16         6.9323    3.9254    0.4590 H         1 <0>         0.0683
     55 H17         7.4748    2.4704    1.3290 H         1 <0>         0.0659
     56 H18         9.6266    3.5858    1.8527 H         1 <0>         0.0712
     57 H19         9.0841    5.0408    0.9827 H         1 <0>         0.0811
     58 H20         7.1775    5.2681    2.5517 H         1 <0>         0.0815
     59 H21         7.7200    3.8131    3.4217 H         1 <0>         0.0406
     60 H22         9.6798    3.9138    4.8229 H         1 <0>         0.0442
     61 H23        10.6025    4.2068    3.3283 H         1 <0>         0.0888
     62 H24        11.8317    4.9777    5.3677 H         1 <0>         0.0987
     63 H25        11.4743    6.3165    4.2494 H         1 <0>         0.0604
     64 H26         8.7282    7.5209    6.3359 H         1 <0>         0.0993
     65 H27         9.6209    7.8353    4.8276 H         1 <0>         0.0607
     66 H28         7.4552    6.7859    4.3101 H         1 <0>         0.0880
     67 H29         7.8315    5.4284    5.3995 H         1 <0>         0.0446
     68 H30         3.1296   -2.8935   -3.4101 H         1 <0>         0.1348
     69 H31         1.9400   -3.7392   -7.4246 H         1 <0>         0.1373
     70 H32         4.3820   -0.3311   -6.6071 H         1 <0>         0.1380
     71 H33         2.5417   -2.2003  -10.3868 H         1 <0>         0.1045
     72 H34         2.8585   -3.5690   -9.2938 H         1 <0>         0.0570
     73 H35         1.4007   -2.5720   -9.0723 H         1 <0>         0.0566
     74 H36         1.8166   -5.6777   -6.6549 H         1 <0>         0.0571
     75 H37         0.5935   -6.1456   -5.4494 H         1 <0>         0.1044
     76 H38         0.3590   -4.6805   -6.4327 H         1 <0>         0.0570
@<TRIPOS>BOND
     1    1    2 1
     2    1   39 1
     3    1   40 1
     4    1   41 1
     5    2    3 1
     6    2    4 1
     7    2    5 1
     8    3   42 1
     9    3   43 1
    10    3   44 1
    11    4   45 1
    12    4   46 1
    13    4   47 1
    14    5    6 am
    15    5   48 1
    16    6    7 2
    17    6    8 am
    18    8    9 1
    19    8   49 1
    20    9   18 ar
    21    9   10 ar
    22   10   11 ar
    23   10   29 1
    24   11   12 ar
    25   11   50 1
    26   12   17 ar
    27   12   13 ar
    28   13   14 ar
    29   13   51 1
    30   14   15 ar
    31   15   16 ar
    32   15   19 1
    33   16   17 ar
    34   16   52 1
    35   17   18 ar
    36   19   20 1
    37   19   53 1
    38   20   21 1
    39   20   54 1
    40   20   55 1
    41   21   22 1
    42   21   56 1
    43   21   57 1
    44   22   23 1
    45   22   58 1
    46   22   59 1
    47   23   28 1
    48   23   24 1
    49   24   25 1
    50   24   60 1
    51   24   61 1
    52   25   26 1
    53   25   62 1
    54   25   63 1
    55   26   27 1
    56   27   28 1
    57   27   64 1
    58   27   65 1
    59   28   66 1
    60   28   67 1
    61   29   34 ar
    62   29   30 ar
    63   30   31 ar
    64   30   68 1
    65   31   32 ar
    66   31   37 1
    67   32   33 ar
    68   32   69 1
    69   33   34 ar
    70   33   35 1
    71   34   70 1
    72   35   36 1
    73   36   71 1
    74   36   72 1
    75   36   73 1
    76   37   38 1
    77   38   74 1
    78   38   75 1
    79   38   76 1
@<TRIPOS>MOLECULE
CHEMBL339856__1
   77    80     0     0     0
SMALL
USER_CHARGES

@<TRIPOS>ATOM
      1 C1         -0.0187    1.5258    0.0104 C.3       1 <0>        -0.1649
      2 C2          0.0021   -0.0041    0.0020 C.3       1 <0>         0.1876
      3 C3          0.7421   -0.5109    1.2415 C.3       1 <0>        -0.1648
      4 C4         -1.4333   -0.5336    0.0129 C.3       1 <0>        -0.1577
      5 N1          0.6878   -0.4765   -1.2033 N.am      1 <0>        -0.7349
      6 C5          1.9715   -0.1323   -1.4270 C.2       1 <0>         0.6965
      7 O1          2.5604    0.5703   -0.6286 O.2       1 <0>        -0.5193
      8 N2          2.6023   -0.5669   -2.5359 N.am      1 <0>        -0.6653
      9 C6          3.9247   -0.2123   -2.7663 C.ar      1 <0>         0.4552
     10 C7          4.5693   -0.6712   -3.9356 C.ar      1 <0>        -0.1489
     11 C8          5.8881   -0.3212   -4.1717 C.ar      1 <0>         0.0258
     12 C9          6.5368    0.4880   -3.2221 C.ar      1 <0>        -0.2338
     13 C10         7.8708    0.8895   -3.3824 C.ar      1 <0>         0.2244
     14 N3          8.4455    1.6459   -2.4759 N.ar      1 <0>        -0.5405
     15 C11         7.8088    2.0618   -1.3834 C.ar      1 <0>         0.4020
     16 C12         6.4944    1.7182   -1.1375 C.ar      1 <0>        -0.2356
     17 C13         5.8226    0.9111   -2.0693 C.ar      1 <0>         0.2364
     18 N4          4.5491    0.5491   -1.8926 N.ar      1 <0>        -0.4833
     19 N5          8.4837    2.8609   -0.4679 N.pl3     1 <0>        -0.7296
     20 C14         7.7998    3.3283    0.7404 C.3       1 <0>         0.1343
     21 C15         8.7592    4.1828    1.5712 C.3       1 <0>        -0.1620
     22 C16         8.0449    4.6711    2.8331 C.3       1 <0>        -0.0056
     23 N6          8.9661    5.4915    3.6308 N.4       1 <0>        -0.3848
     24 C17        10.0751    4.6561    4.1117 C.3       1 <0>        -0.0493
     25 C18        11.0335    5.5132    4.9423 C.3       1 <0>         0.0363
     26 O2         10.3151    6.1077    6.0268 O.3       1 <0>        -0.3564
     27 C19         9.2091    6.9129    5.6095 C.3       1 <0>         0.0356
     28 C20         8.2473    6.0584    4.7801 C.3       1 <0>        -0.0436
     29 C21         3.8387   -1.5231   -4.9046 C.ar      1 <0>         0.0336
     30 C22         3.1397   -2.6438   -4.4607 C.ar      1 <0>        -0.1995
     31 C23         2.4582   -3.4378   -5.3688 C.ar      1 <0>         0.1788
     32 C24         2.4715   -3.1183   -6.7187 C.ar      1 <0>        -0.2950
     33 C25         3.1664   -2.0032   -7.1640 C.ar      1 <0>         0.1787
     34 C26         3.8449   -1.2016   -6.2604 C.ar      1 <0>        -0.1734
     35 O3          3.1769   -1.6937   -8.4872 O.3       1 <0>        -0.3098
     36 C27         2.4514   -2.5601   -9.3619 C.3       1 <0>         0.0242
     37 O4          1.7762   -4.5310   -4.9368 O.3       1 <0>        -0.3108
     38 C28         1.0960   -5.3046   -5.9272 C.3       1 <0>         0.0241
     39 H1          1.0039    1.9031    0.0027 H         1 <0>         0.0790
     40 H2         -0.5459    1.8868   -0.8726 H         1 <0>         0.0536
     41 H3         -0.5289    1.8773    0.9072 H         1 <0>         0.0637
     42 H4          0.2319   -0.1594    2.1383 H         1 <0>         0.0636
     43 H5          0.7568   -1.6008    1.2356 H         1 <0>         0.0540
     44 H6          1.7647   -0.1336    1.2338 H         1 <0>         0.0790
     45 H7         -1.9605   -0.1726   -0.8702 H         1 <0>         0.0634
     46 H8         -1.4185   -1.6235    0.0069 H         1 <0>         0.0638
     47 H9         -1.9435   -0.1821    0.9097 H         1 <0>         0.0772
     48 H10         0.2179   -1.0371   -1.8404 H         1 <0>         0.3963
     49 H11         2.1325   -1.1275   -3.1729 H         1 <0>         0.4174
     50 H12         6.4032   -0.6599   -5.0584 H         1 <0>         0.1541
     51 H13         8.4269    0.5757   -4.2534 H         1 <0>         0.1721
     52 H14         5.9925    2.0642   -0.2459 H         1 <0>         0.1387
     53 H15         9.4075    3.1089   -0.6290 H         1 <0>         0.4065
     54 H16         6.9323    3.9254    0.4590 H         1 <0>         0.0757
     55 H17         7.4748    2.4704    1.3290 H         1 <0>         0.0754
     56 H18         9.6266    3.5858    1.8527 H         1 <0>         0.0954
     57 H19         9.0841    5.0408    0.9827 H         1 <0>         0.0962
     58 H20         7.1775    5.2681    2.5517 H         1 <0>         0.1385
     59 H21         7.7200    3.8131    3.4217 H         1 <0>         0.1362
     60 H22         9.6811    3.8489    4.7292 H         1 <0>         0.1406
     61 H23        10.6091    4.2351    3.2598 H         1 <0>         0.1432
     62 H24        11.8340    4.8867    5.3359 H         1 <0>         0.1422
     63 H25        11.4586    6.2963    4.3145 H         1 <0>         0.0813
     64 H26         8.6891    7.2995    6.4860 H         1 <0>         0.1427
     65 H27         9.5717    7.7440    5.0046 H         1 <0>         0.0814
     66 H28         7.4244    6.6785    4.4245 H         1 <0>         0.1440
     67 H29         7.8539    5.2507    5.3974 H         1 <0>         0.1402
     68 H30         3.1296   -2.8935   -3.4101 H         1 <0>         0.1344
     69 H31         1.9400   -3.7392   -7.4246 H         1 <0>         0.1392
     70 H32         4.3820   -0.3311   -6.6071 H         1 <0>         0.1379
     71 H33         2.5417   -2.2003  -10.3868 H         1 <0>         0.1063
     72 H34         2.8585   -3.5690   -9.2938 H         1 <0>         0.0582
     73 H35         1.4007   -2.5720   -9.0723 H         1 <0>         0.0577
     74 H36         1.8166   -5.6777   -6.6549 H         1 <0>         0.0583
     75 H37         0.5935   -6.1456   -5.4494 H         1 <0>         0.1061
     76 H38         0.3590   -4.6805   -6.4327 H         1 <0>         0.0582
     77 H39         9.3309    6.2393    3.0600 H         1 <0>         0.4235
@<TRIPOS>BOND
     1    1    2 1
     2    1   39 1
     3    1   40 1
     4    1   41 1
     5    2    3 1
     6    2    4 1
     7    2    5 1
     8    3   42 1
     9    3   43 1
    10    3   44 1
    11    4   45 1
    12    4   46 1
    13    4   47 1
    14    5    6 am
    15    5   48 1
    16    6    7 2
    17    6    8 am
    18    8    9 1
    19    8   49 1
    20    9   18 ar
    21    9   10 ar
    22   10   11 ar
    23   10   29 1
    24   11   12 ar
    25   11   50 1
    26   12   17 ar
    27   12   13 ar
    28   13   14 ar
    29   13   51 1
    30   14   15 ar
    31   15   16 ar
    32   15   19 1
    33   16   17 ar
    34   16   52 1
    35   17   18 ar
    36   19   20 1
    37   19   53 1
    38   20   21 1
    39   20   54 1
    40   20   55 1
    41   21   22 1
    42   21   56 1
    43   21   57 1
    44   22   23 1
    45   22   58 1
    46   22   59 1
    47   23   28 1
    48   23   24 1
    49   23   77 1
    50   24   25 1
    51   24   60 1
    52   24   61 1
    53   25   26 1
    54   25   62 1
    55   25   63 1
    56   26   27 1
    57   27   28 1
    58   27   64 1
    59   27   65 1
    60   28   66 1
    61   28   67 1
    62   29   34 ar
    63   29   30 ar
    64   30   31 ar
    65   30   68 1
    66   31   32 ar
    67   31   37 1
    68   32   33 ar
    69   32   69 1
    70   33   34 ar
    71   33   35 1
    72   34   70 1
    73   35   36 1
    74   36   71 1
    75   36   72 1
    76   36   73 1
    77   37   38 1
    78   38   74 1
    79   38   75 1
    80   38   76 1
@<TRIPOS>MOLECULE
CHEMBL495962
   52    55     0     0     0
SMALL
USER_CHARGES

@<TRIPOS>ATOM
      1 C1         -1.5910    1.6547   -2.1216 C.3       1 <0>        -0.0469
      2 N1         -1.4620    0.1941   -2.2095 N.4       1 <0>        -0.3740
      3 C2         -0.0413   -0.1672   -2.3048 C.3       1 <0>        -0.0600
      4 C3         -2.0444   -0.4220   -1.0098 C.3       1 <0>        -0.0302
      5 C4         -2.0233   -1.9219   -1.1546 C.2       1 <0>         0.4996
      6 O1         -1.5679   -2.4279   -2.1585 O.2       1 <0>        -0.5133
      7 N2         -2.5105   -2.7010   -0.1687 N.am      1 <0>        -0.5385
      8 C5         -2.9567   -2.0973    1.0893 C.3       1 <0>         0.0603
      9 C6         -2.5903   -4.0884   -0.3470 C.ar      1 <0>         0.1072
     10 C7         -1.4231   -4.8400   -0.4649 C.ar      1 <0>        -0.0957
     11 C8         -1.4878   -6.2056   -0.6410 C.ar      1 <0>        -0.0869
     12 C9         -2.7209   -6.8387   -0.7012 C.ar      1 <0>         0.0540
     13 C10        -3.9038   -6.0886   -0.5827 C.ar      1 <0>         0.0771
     14 C11        -3.8264   -4.7046   -0.3992 C.ar      1 <0>        -0.0659
     15 N3         -4.9415   -6.9567   -0.6769 N.2       1 <0>        -0.5391
     16 C12        -4.4833   -8.1764   -0.8434 C.2       1 <0>         0.4131
     17 N4         -3.1135   -8.1567   -0.8653 N.pl3     1 <0>        -0.5799
     18 H1         -2.5284   -8.9224   -0.9757 H         1 <0>         0.4395
     19 C13        -5.3159   -9.3824   -0.9851 C.2       1 <0>        -0.3091
     20 C14        -6.7047   -9.2700   -1.0782 C.2       1 <0>         0.3786
     21 C15        -7.4910  -10.5025   -1.2183 C.ar      1 <0>        -0.1565
     22 C16        -8.8844  -10.4605   -1.3170 C.ar      1 <0>        -0.0485
     23 C17        -9.5904  -11.6234   -1.4470 C.ar      1 <0>        -0.1480
     24 C18        -8.9343  -12.8458   -1.4818 C.ar      1 <0>        -0.0445
     25 C19        -7.5607  -12.9097   -1.3860 C.ar      1 <0>        -0.1648
     26 C20        -6.8215  -11.7386   -1.2531 C.ar      1 <0>         0.2183
     27 N5         -5.4451  -11.7813   -1.1567 N.am      1 <0>        -0.6360
     28 H2         -4.9954  -12.6404   -1.1824 H         1 <0>         0.4208
     29 C21        -4.7130  -10.6618   -1.0336 C.2       1 <0>         0.5808
     30 O2         -3.4999  -10.7504   -0.9571 O.2       1 <0>        -0.5619
     31 N6         -7.3181   -8.0414   -1.0394 N.pl3     1 <0>        -0.8023
     32 H3         -1.1588    2.1118   -3.0118 H         1 <0>         0.1299
     33 H4         -2.6451    1.9228   -2.0508 H         1 <0>         0.1251
     34 H5         -1.0647    2.0134   -1.2370 H         1 <0>         0.1243
     35 H6          0.3909    0.2899   -3.1950 H         1 <0>         0.1269
     36 H7          0.4850    0.1915   -1.4202 H         1 <0>         0.1194
     37 H8          0.0544   -1.2510   -2.3700 H         1 <0>         0.1396
     38 H9         -1.4629   -0.1333   -0.1343 H         1 <0>         0.1601
     39 H10        -3.0735   -0.0830   -0.8904 H         1 <0>         0.1616
     40 H11        -4.0142   -1.8435    1.0156 H         1 <0>         0.0767
     41 H12        -2.8089   -2.8054    1.9047 H         1 <0>         0.0950
     42 H13        -2.3789   -1.1937    1.2836 H         1 <0>         0.0790
     43 H14        -0.4619   -4.3497   -0.4184 H         1 <0>         0.1290
     44 H15        -0.5793   -6.7823   -0.7325 H         1 <0>         0.1330
     45 H16        -4.7287   -4.1190   -0.3029 H         1 <0>         0.1319
     46 H17        -9.4014   -9.5126   -1.2903 H         1 <0>         0.1331
     47 H18       -10.6672  -11.5909   -1.5229 H         1 <0>         0.1373
     48 H19        -9.5059  -13.7564   -1.5845 H         1 <0>         0.1398
     49 H20        -7.0597  -13.8661   -1.4145 H         1 <0>         0.1422
     50 H21        -6.7950   -7.2434   -0.8654 H         1 <0>         0.4311
     51 H22        -8.2745   -7.9720   -1.1861 H         1 <0>         0.4033
     52 H23        -1.9492   -0.1380   -3.0283 H         1 <0>         0.4341
@<TRIPOS>BOND
     1    1    2 1
     2    1   32 1
     3    1   33 1
     4    1   34 1
     5    2    3 1
     6    2    4 1
     7    2   52 1
     8    3   35 1
     9    3   36 1
    10    3   37 1
    11    4    5 1
    12    4   38 1
    13    4   39 1
    14    5    6 2
    15    5    7 am
    16    7    8 1
    17    7    9 1
    18    8   40 1
    19    8   41 1
    20    8   42 1
    21    9   14 ar
    22    9   10 ar
    23   10   11 ar
    24   10   43 1
    25   11   12 ar
    26   11   44 1
    27   12   17 1
    28   12   13 ar
    29   13   14 ar
    30   13   15 1
    31   14   45 1
    32   15   16 2
    33   16   17 1
    34   16   19 1
    35   17   18 1
    36   19   29 1
    37   19   20 2
    38   20   21 1
    39   20   31 1
    40   21   26 ar
    41   21   22 ar
    42   22   23 ar
    43   22   46 1
    44   23   24 ar
    45   23   47 1
    46   24   25 ar
    47   24   48 1
    48   25   26 ar
    49   25   49 1
    50   26   27 1
    51   27   28 1
    52   27   29 am
    53   29   30 2
    54   31   50 1
    55   31   51 1
@<TRIPOS>MOLECULE
CHEMBL150187
   45    48     0     0     0
SMALL
USER_CHARGES

@<TRIPOS>ATOM
      1 C1          2.8269   -0.1256   -0.3048 C.3       1 <0>         0.0213
      2 O1          1.6240   -0.8868   -0.1787 O.3       1 <0>        -0.3003
      3 C2          0.9627   -0.8042    1.0066 C.ar      1 <0>         0.1129
      4 C3          1.4587   -0.0124    2.0032 C.ar      1 <0>        -0.1442
      5 C4          0.7787    0.0734    3.2238 C.ar      1 <0>        -0.1785
      6 C5         -0.4179   -0.6601    3.4189 C.ar      1 <0>         0.2015
      7 C6         -0.9082   -1.4654    2.3839 C.ar      1 <0>        -0.1773
      8 C7         -0.2235   -1.5282    1.1904 C.ar      1 <0>         0.1651
      9 O2         -0.6998   -2.3046    0.1825 O.3       1 <0>        -0.2916
     10 C8         -1.9129   -3.0179    0.4308 C.3       1 <0>         0.0426
     11 C9         -2.2895   -3.8308   -0.8095 C.3       1 <0>         0.1213
     12 N1         -3.5332   -4.5620   -0.5549 N.pl3     1 <0>        -0.2943
     13 C10        -4.6533   -4.5090   -1.3122 C.2       1 <0>        -0.0434
     14 C11        -5.5492   -5.3317   -0.7184 C.2       1 <0>        -0.0482
     15 N2         -4.9413   -5.8411    0.3588 N.2       1 <0>        -0.2637
     16 N3         -3.7463   -5.3697    0.4245 N.2       1 <0>        -0.0845
     17 N4         -1.0506   -0.5598    4.5986 N.ar      1 <0>        -0.5398
     18 C12        -0.5673    0.2034    5.5497 C.ar      1 <0>         0.3479
     19 N5          0.5460    0.9060    5.4130 N.ar      1 <0>        -0.5822
     20 C13         1.2491    0.8790    4.2881 C.ar      1 <0>         0.4750
     21 N6          2.4084    1.6164    4.1596 N.pl3     1 <0>        -0.6531
     22 C14         2.9153    2.3219    5.2587 C.ar      1 <0>         0.0879
     23 C15         3.8041    1.7060    6.1321 C.ar      1 <0>         0.1504
     24 C16         4.3026    2.4056    7.2163 C.ar      1 <0>        -0.1313
     25 C17         3.9172    3.7167    7.4322 C.ar      1 <0>        -0.0311
     26 C18         3.0328    4.3329    6.5649 C.ar      1 <0>        -0.1312
     27 C19         2.5351    3.6413    5.4751 C.ar      1 <0>         0.1532
     28 F1          1.6758    4.2456    4.6256 F         1 <0>        -0.1143
     29 Br1         4.6004    4.6686    8.9164 Br        1 <0>        -0.0087
     30 F2          4.1803    0.4254    5.9226 F         1 <0>        -0.1148
     31 H1          3.5417   -0.4476    0.4524 H         1 <0>         0.0582
     32 H2          3.2529   -0.2810   -1.2960 H         1 <0>         0.1076
     33 H3          2.6035    0.9323   -0.1671 H         1 <0>         0.0577
     34 H4          2.3713    0.5446    1.8502 H         1 <0>         0.1405
     35 H5         -1.8188   -2.0302    2.5190 H         1 <0>         0.1558
     36 H6         -1.7723   -3.6903    1.2770 H         1 <0>         0.0892
     37 H7         -2.7105   -2.3104    0.6575 H         1 <0>         0.0781
     38 H8         -2.4302   -3.1584   -1.6557 H         1 <0>         0.1213
     39 H9         -1.4920   -4.5383   -1.0362 H         1 <0>         0.1154
     40 H10        -4.8026   -3.9270   -2.2096 H         1 <0>         0.1943
     41 H11        -6.5567   -5.5364   -1.0491 H         1 <0>         0.1934
     42 H12        -1.1019    0.2613    6.4863 H         1 <0>         0.1989
     43 H13         2.8723    1.6462    3.3083 H         1 <0>         0.4239
     44 H14         4.9932    1.9277    7.8953 H         1 <0>         0.1596
     45 H15         2.7338    5.3564    6.7365 H         1 <0>         0.1595
@<TRIPOS>BOND
     1    1    2 1
     2    1   31 1
     3    1   32 1
     4    1   33 1
     5    2    3 1
     6    3    8 ar
     7    3    4 ar
     8    4    5 ar
     9    4   34 1
    10    5   20 ar
    11    5    6 ar
    12    6    7 ar
    13    6   17 ar
    14    7    8 ar
    15    7   35 1
    16    8    9 1
    17    9   10 1
    18   10   11 1
    19   10   36 1
    20   10   37 1
    21   11   12 1
    22   11   38 1
    23   11   39 1
    24   12   16 1
    25   12   13 1
    26   13   14 2
    27   13   40 1
    28   14   15 1
    29   14   41 1
    30   15   16 2
    31   17   18 ar
    32   18   19 ar
    33   18   42 1
    34   19   20 ar
    35   20   21 1
    36   21   22 1
    37   21   43 1
    38   22   27 ar
    39   22   23 ar
    40   23   24 ar
    41   23   30 1
    42   24   25 ar
    43   24   44 1
    44   25   26 ar
    45   25   29 1
    46   26   27 ar
    47   26   45 1
    48   27   28 1
@<TRIPOS>MOLECULE
CHEMBL323775
   64    68     0     0     0
SMALL
USER_CHARGES

@<TRIPOS>ATOM
      1 C1          0.3551    0.1168   -0.0427 C.3       1 <0>         0.0690
      2 N1          0.1270   -1.0965   -0.8315 N.am      1 <0>        -0.5059
      3 C2         -1.1510   -1.5665   -1.0002 C.ar      1 <0>         0.4666
      4 C3         -1.3880   -2.7342   -1.7574 C.ar      1 <0>        -0.2689
      5 C4         -0.3089   -3.4299   -2.3486 C.2       1 <0>         0.0230
      6 C5          0.9629   -2.9534   -2.1748 C.2       1 <0>        -0.1522
      7 C6          1.1734   -1.7362   -1.3882 C.2       1 <0>         0.5554
      8 O1          2.3011   -1.3025   -1.2330 O.2       1 <0>        -0.4954
      9 C7          2.1152   -3.6597   -2.7817 C.ar      1 <0>        -0.0157
     10 C8          2.7712   -4.6676   -2.0739 C.ar      1 <0>        -0.0062
     11 C9          3.8444   -5.3225   -2.6457 C.ar      1 <0>        -0.1052
     12 C10         4.2695   -4.9809   -3.9169 C.ar      1 <0>        -0.0848
     13 C11         3.6236   -3.9827   -4.6239 C.ar      1 <0>        -0.1050
     14 C12         2.5455   -3.3240   -4.0660 C.ar      1 <0>        -0.0062
     15 Cl1         1.7321   -2.0762   -4.9576 Cl        1 <0>        -0.0505
     16 Cl2         2.2399   -5.0970   -0.4780 Cl        1 <0>        -0.0510
     17 C13        -2.7097   -3.1809   -1.9060 C.ar      1 <0>         0.2631
     18 N2         -3.6778   -2.4915   -1.3322 N.ar      1 <0>        -0.5739
     19 C14        -3.4173   -1.3964   -0.6265 C.ar      1 <0>         0.6046
     20 N3         -2.1870   -0.9362   -0.4584 N.ar      1 <0>        -0.5909
     21 N4         -4.4685   -0.7123   -0.0474 N.pl3     1 <0>        -0.6314
     22 C15        -5.7645   -1.2389   -0.1079 C.ar      1 <0>         0.1457
     23 C16        -5.9641   -2.6083    0.0070 C.ar      1 <0>        -0.0669
     24 C17        -7.2426   -3.1267   -0.0522 C.ar      1 <0>        -0.1194
     25 C18        -8.3274   -2.2800   -0.2270 C.ar      1 <0>         0.0980
     26 C19        -8.1288   -0.9120   -0.3423 C.ar      1 <0>        -0.1804
     27 C20        -6.8515   -0.3913   -0.2771 C.ar      1 <0>        -0.1028
     28 O2         -9.5860   -2.7913   -0.2857 O.3       1 <0>        -0.3281
     29 C21       -10.6561   -1.8618   -0.4672 C.3       1 <0>         0.0258
     30 C22       -11.9861   -2.6169   -0.5085 C.3       1 <0>        -0.0010
     31 N5        -12.2151   -3.2765    0.7840 N.4       1 <0>        -0.3839
     32 C23       -13.4123   -4.1211    0.6953 C.3       1 <0>        -0.0070
     33 C24       -13.6095   -4.8730    2.0133 C.3       1 <0>        -0.1467
     34 C25       -13.7791   -3.8621    3.1510 C.3       1 <0>        -0.1391
     35 C26       -12.5579   -2.9388    3.1866 C.3       1 <0>        -0.1454
     36 C27       -12.3997   -2.2585    1.8252 C.3       1 <0>        -0.0129
     37 H1          1.4216    0.3408   -0.0208 H         1 <0>         0.1024
     38 H2         -0.1820    0.9505   -0.4950 H         1 <0>         0.0807
     39 H3         -0.0047   -0.0381    0.9745 H         1 <0>         0.0808
     40 H4         -0.4848   -4.3239   -2.9285 H         1 <0>         0.1521
     41 H5          4.3530   -6.1027   -2.0989 H         1 <0>         0.1450
     42 H6          5.1097   -5.4956   -4.3592 H         1 <0>         0.1470
     43 H7          3.9605   -3.7208   -5.6160 H         1 <0>         0.1451
     44 H8         -2.9302   -4.0699   -2.4783 H         1 <0>         0.1889
     45 H9         -4.3087    0.1327    0.4012 H         1 <0>         0.4284
     46 H10        -5.1195   -3.2677    0.1424 H         1 <0>         0.1432
     47 H11        -7.3980   -4.1918    0.0371 H         1 <0>         0.1367
     48 H12        -8.9739   -0.2535   -0.4791 H         1 <0>         0.1311
     49 H13        -6.6974    0.6742   -0.3624 H         1 <0>         0.1344
     50 H14       -10.6662   -1.1532    0.3610 H         1 <0>         0.0857
     51 H15       -10.5147   -1.3234   -1.4043 H         1 <0>         0.1090
     52 H16       -12.7963   -1.9153   -0.7070 H         1 <0>         0.1483
     53 H17       -11.9536   -3.3672   -1.2986 H         1 <0>         0.1425
     54 H18       -14.2838   -3.4960    0.5003 H         1 <0>         0.1288
     55 H19       -13.2914   -4.8379   -0.1169 H         1 <0>         0.1311
     56 H20       -14.4998   -5.4982    1.9460 H         1 <0>         0.1128
     57 H21       -12.7386   -5.4987    2.2091 H         1 <0>         0.0881
     58 H22       -14.6787   -3.2703    2.9816 H         1 <0>         0.0819
     59 H23       -13.8633   -4.3919    4.0999 H         1 <0>         0.0945
     60 H24       -12.6966   -2.1814    3.9581 H         1 <0>         0.1119
     61 H25       -11.6652   -3.5243    3.4069 H         1 <0>         0.0881
     62 H26       -11.5312   -1.6002    1.8471 H         1 <0>         0.1276
     63 H27       -13.2927   -1.6731    1.6061 H         1 <0>         0.1298
     64 H28       -11.4175   -3.8502    1.0136 H         1 <0>         0.4297
@<TRIPOS>BOND
     1    1    2 1
     2    1   37 1
     3    1   38 1
     4    1   39 1
     5    2    7 am
     6    2    3 1
     7    3   20 ar
     8    3    4 ar
     9    4    5 1
    10    4   17 ar
    11    5    6 2
    12    5   40 1
    13    6    7 1
    14    6    9 1
    15    7    8 2
    16    9   14 ar
    17    9   10 ar
    18   10   11 ar
    19   10   16 1
    20   11   12 ar
    21   11   41 1
    22   12   13 ar
    23   12   42 1
    24   13   14 ar
    25   13   43 1
    26   14   15 1
    27   17   18 ar
    28   17   44 1
    29   18   19 ar
    30   19   20 ar
    31   19   21 1
    32   21   22 1
    33   21   45 1
    34   22   27 ar
    35   22   23 ar
    36   23   24 ar
    37   23   46 1
    38   24   25 ar
    39   24   47 1
    40   25   26 ar
    41   25   28 1
    42   26   27 ar
    43   26   48 1
    44   27   49 1
    45   28   29 1
    46   29   30 1
    47   29   50 1
    48   29   51 1
    49   30   31 1
    50   30   52 1
    51   30   53 1
    52   31   36 1
    53   31   32 1
    54   31   64 1
    55   32   33 1
    56   32   54 1
    57   32   55 1
    58   33   34 1
    59   33   56 1
    60   33   57 1
    61   34   35 1
    62   34   58 1
    63   34   59 1
    64   35   36 1
    65   35   60 1
    66   35   61 1
    67   36   62 1
    68   36   63 1
@<TRIPOS>MOLECULE
CHEMBL373365
   57    60     0     0     0
SMALL
USER_CHARGES

@<TRIPOS>ATOM
      1 C1         -0.6424    1.7717   -0.1518 C.3       1 <0>        -0.1579
      2 C2         -0.2413    0.2953   -0.1602 C.3       1 <0>        -0.0226
      3 C3          0.7234    0.0222    0.9955 C.3       1 <0>        -0.1569
      4 C4         -1.4715   -0.5604   -0.0004 C.2       1 <0>        -0.0124
      5 C5         -2.3714   -0.5423    1.0825 C.2       1 <0>        -0.0965
      6 C6         -3.3508   -1.4829    0.8194 C.2       1 <0>         0.1187
      7 N1         -3.0860   -2.0636   -0.3630 N.pl3     1 <0>        -0.2296
      8 C7         -1.9351   -1.5065   -0.8888 C.2       1 <0>        -0.1093
      9 C8         -1.4723   -1.9715   -2.1439 C.2       1 <0>         0.5394
     10 N2         -2.1518   -2.9160   -2.7728 N.2       1 <0>        -0.6229
     11 C9         -3.2608   -3.4406   -2.2546 C.2       1 <0>         0.3350
     12 N3         -3.7371   -3.0640   -1.1000 N.2       1 <0>        -0.3419
     13 N4         -0.3260   -1.4449   -2.7044 N.pl3     1 <0>        -0.6145
     14 C10         0.0516   -1.8124   -4.0021 C.ar      1 <0>         0.0993
     15 C11        -0.8876   -2.3358   -4.8734 C.ar      1 <0>        -0.0422
     16 C12        -0.5078   -2.7008   -6.1670 C.ar      1 <0>        -0.1541
     17 C13         0.8204   -2.5349   -6.5740 C.ar      1 <0>         0.1852
     18 C14         1.7507   -2.0113   -5.6962 C.ar      1 <0>        -0.1742
     19 C15         1.3710   -1.6454   -4.4167 C.ar      1 <0>         0.1353
     20 F1          2.2839   -1.1289   -3.5652 F         1 <0>        -0.1187
     21 F2          1.1934   -2.8867   -7.8239 F         1 <0>        -0.0993
     22 C16        -1.5040   -3.2601   -7.1011 C.2       1 <0>         0.5754
     23 O1         -1.1712   -3.5771   -8.2267 O.2       1 <0>        -0.4974
     24 N5         -2.7829   -3.4193   -6.7065 N.am      1 <0>        -0.5940
     25 O2         -3.7388   -3.9559   -7.6029 O.3       1 <0>        -0.1369
     26 C17        -5.0526   -4.0687   -7.0523 C.3       1 <0>        -0.0032
     27 C18        -2.2850    0.3213    2.2791 C.2       1 <0>         0.2436
     28 N6         -1.3586    1.2177    2.5273 N.2       1 <0>        -0.2654
     29 N7         -1.6028    1.7780    3.6594 N.2       1 <0>        -0.2788
     30 C19        -2.6848    1.2666    4.1746 C.2       1 <0>         0.1717
     31 O3         -3.1459    0.3393    3.3161 O.3       1 <0>        -0.2205
     32 C20        -3.3096    1.6485    5.4918 C.3       1 <0>         0.0031
     33 C21        -2.3113    1.3931    6.6228 C.3       1 <0>        -0.1469
     34 C22        -3.6843    3.1317    5.4675 C.3       1 <0>        -0.1469
     35 H1          0.2474    2.3906   -0.2674 H         1 <0>         0.0660
     36 H2         -1.3297    1.9662   -0.9751 H         1 <0>         0.0486
     37 H3         -1.1306    2.0102    0.7931 H         1 <0>         0.0919
     38 H4          0.2469    0.0567   -1.1051 H         1 <0>         0.0593
     39 H5          0.2352    0.2608    1.9404 H         1 <0>         0.0896
     40 H6          1.0092   -1.0296    0.9895 H         1 <0>         0.0491
     41 H7          1.6132    0.6411    0.8799 H         1 <0>         0.0666
     42 H8         -4.1901   -1.7128    1.4590 H         1 <0>         0.1950
     43 H9         -3.7807   -4.2095   -2.8068 H         1 <0>         0.2257
     44 H10         0.2181   -0.8204   -2.1996 H         1 <0>         0.4309
     45 H11        -1.9115   -2.4620   -4.5538 H         1 <0>         0.1817
     46 H12         2.7759   -1.8835   -6.0109 H         1 <0>         0.1683
     47 H13        -3.0484   -3.1664   -5.8085 H         1 <0>         0.4068
     48 H14        -5.0265   -4.7226   -6.1807 H         1 <0>         0.0588
     49 H15        -5.4082   -3.0819   -6.7557 H         1 <0>         0.0574
     50 H16        -5.7254   -4.4875   -7.8007 H         1 <0>         0.1167
     51 H17        -4.2056    1.0499    5.6560 H         1 <0>         0.1021
     52 H18        -1.4153    1.9916    6.4586 H         1 <0>         0.0724
     53 H19        -2.7632    1.6693    7.5755 H         1 <0>         0.0781
     54 H20        -2.0444    0.3365    6.6401 H         1 <0>         0.0604
     55 H21        -4.3955    3.3136    4.6617 H         1 <0>         0.0603
     56 H22        -4.1362    3.4079    6.4201 H         1 <0>         0.0781
     57 H23        -2.7883    3.7302    5.3032 H         1 <0>         0.0724
@<TRIPOS>BOND
     1    1    2 1
     2    1   35 1
     3    1   36 1
     4    1   37 1
     5    2    3 1
     6    2    4 1
     7    2   38 1
     8    3   39 1
     9    3   40 1
    10    3   41 1
    11    4    8 2
    12    4    5 1
    13    5    6 2
    14    5   27 1
    15    6    7 1
    16    6   42 1
    17    7   12 1
    18    7    8 1
    19    8    9 1
    20    9   10 2
    21    9   13 1
    22   10   11 1
    23   11   12 2
    24   11   43 1
    25   13   14 1
    26   13   44 1
    27   14   19 ar
    28   14   15 ar
    29   15   16 ar
    30   15   45 1
    31   16   17 ar
    32   16   22 1
    33   17   18 ar
    34   17   21 1
    35   18   19 ar
    36   18   46 1
    37   19   20 1
    38   22   23 2
    39   22   24 am
    40   24   25 1
    41   24   47 1
    42   25   26 1
    43   26   48 1
    44   26   49 1
    45   26   50 1
    46   27   31 1
    47   27   28 2
    48   28   29 1
    49   29   30 2
    50   30   31 1
    51   30   32 1
    52   32   33 1
    53   32   34 1
    54   32   51 1
    55   33   52 1
    56   33   53 1
    57   33   54 1
    58   34   55 1
    59   34   56 1
    60   34   57 1
@<TRIPOS>MOLECULE
CHEMBL204524
   50    54     0     0     0
SMALL
USER_CHARGES

@<TRIPOS>ATOM
      1 C1          1.0060    0.4731   -0.9370 C.3       1 <0>        -0.0466
      2 N1          0.8848   -0.9883   -0.8505 N.4       1 <0>        -0.3846
      3 C2         -0.5355   -1.3577   -0.8007 C.3       1 <0>        -0.0226
      4 C3         -0.6664   -2.8841   -0.8261 C.3       1 <0>         0.1051
      5 N2          0.1443   -3.4400    0.2683 N.pl3     1 <0>        -0.6276
      6 C4          1.5412   -2.9953    0.3913 C.3       1 <0>         0.1047
      7 C5          1.5679   -1.4636    0.3592 C.3       1 <0>        -0.0220
      8 C6         -0.3948   -4.3599    1.1621 C.ar      1 <0>         0.4096
      9 C7         -1.6391   -4.9274    0.8921 C.ar      1 <0>        -0.2222
     10 C8         -2.1751   -5.8421    1.7799 C.ar      1 <0>        -0.0096
     11 C9         -1.4451   -6.1628    2.9177 C.ar      1 <0>        -0.0461
     12 C10        -0.1958   -5.5569    3.1347 C.ar      1 <0>         0.3141
     13 N3          0.2841   -4.6832    2.2477 N.ar      1 <0>        -0.5116
     14 N4          0.2854   -6.0429    4.2972 N.2       1 <0>        -0.5326
     15 C11        -0.5694   -6.8996    4.8115 C.2       1 <0>         0.4294
     16 N5         -1.6608   -7.0089    3.9921 N.pl3     1 <0>        -0.5715
     17 H1         -2.4374   -7.5717    4.1370 H         1 <0>         0.4400
     18 C12        -0.3814   -7.6299    6.0752 C.2       1 <0>        -0.3069
     19 C13         0.7016   -7.3306    6.9053 C.2       1 <0>         0.3820
     20 C14         0.8453   -8.0876    8.1555 C.ar      1 <0>        -0.1575
     21 C15         1.9057   -7.8376    9.0309 C.ar      1 <0>        -0.0473
     22 C16         2.0141   -8.5573   10.1876 C.ar      1 <0>        -0.1481
     23 C17         1.0794   -9.5345   10.4997 C.ar      1 <0>        -0.0436
     24 C18         0.0260   -9.7969    9.6503 C.ar      1 <0>        -0.1649
     25 C19        -0.1044   -9.0766    8.4672 C.ar      1 <0>         0.2186
     26 N6         -1.1529   -9.3239    7.6039 N.am      1 <0>        -0.6353
     27 C20        -1.3000   -8.6358    6.4597 C.2       1 <0>         0.5812
     28 O1         -2.2449   -8.8872    5.7322 O.2       1 <0>        -0.5612
     29 N7          1.6066   -6.3563    6.5617 N.pl3     1 <0>        -0.8014
     30 H2          2.0598    0.7482   -0.9821 H         1 <0>         0.1247
     31 H3          0.4993    0.8273   -1.8347 H         1 <0>         0.1245
     32 H4          0.5490    0.9283   -0.0583 H         1 <0>         0.1210
     33 H5         -0.9799   -0.9700    0.1160 H         1 <0>         0.1323
     34 H6         -1.0516   -0.9342   -1.6623 H         1 <0>         0.1424
     35 H7         -1.7105   -3.1646   -0.6874 H         1 <0>         0.1280
     36 H8         -0.3050   -3.2669   -1.7806 H         1 <0>         0.0925
     37 H9          1.9566   -3.3492    1.3348 H         1 <0>         0.1388
     38 H10         2.1255   -3.3893   -0.4402 H         1 <0>         0.0852
     39 H11         2.6017   -1.1182    0.3524 H         1 <0>         0.1403
     40 H12         1.0598   -1.0727    1.2408 H         1 <0>         0.1317
     41 H13        -2.1797   -4.6549   -0.0022 H         1 <0>         0.1409
     42 H14        -3.1374   -6.2956    1.5937 H         1 <0>         0.1414
     43 H15         2.6368   -7.0788    8.7940 H         1 <0>         0.1338
     44 H16         2.8337   -8.3643   10.8639 H         1 <0>         0.1374
     45 H17         1.1786  -10.0953   11.4174 H         1 <0>         0.1400
     46 H18        -0.6958  -10.5597    9.9024 H         1 <0>         0.1424
     47 H19         1.3891   -5.7158    5.8666 H         1 <0>         0.4299
     48 H20         2.4633   -6.3088    7.0142 H         1 <0>         0.4056
     49 H21        -1.8010  -10.0090    7.8307 H         1 <0>         0.4214
     50 H22         1.3108   -1.4086   -1.6629 H         1 <0>         0.4245
@<TRIPOS>BOND
     1    1    2 1
     2    1   30 1
     3    1   31 1
     4    1   32 1
     5    2    7 1
     6    2    3 1
     7    2   50 1
     8    3    4 1
     9    3   33 1
    10    3   34 1
    11    4    5 1
    12    4   35 1
    13    4   36 1
    14    5    6 1
    15    5    8 1
    16    6    7 1
    17    6   37 1
    18    6   38 1
    19    7   39 1
    20    7   40 1
    21    8   13 ar
    22    8    9 ar
    23    9   10 ar
    24    9   41 1
    25   10   11 ar
    26   10   42 1
    27   11   16 1
    28   11   12 ar
    29   12   13 ar
    30   12   14 1
    31   14   15 2
    32   15   16 1
    33   15   18 1
    34   16   17 1
    35   18   27 1
    36   18   19 2
    37   19   20 1
    38   19   29 1
    39   20   25 ar
    40   20   21 ar
    41   21   22 ar
    42   21   43 1
    43   22   23 ar
    44   22   44 1
    45   23   24 ar
    46   23   45 1
    47   24   25 ar
    48   24   46 1
    49   25   26 1
    50   26   27 am
    51   26   49 1
    52   27   28 2
    53   29   47 1
    54   29   48 1
@<TRIPOS>MOLECULE
CHEMBL204524__1
   49    53     0     0     0
SMALL
USER_CHARGES

@<TRIPOS>ATOM
      1 C1          0.9904    0.4912   -0.9200 C.3       1 <0>        -0.0450
      2 N1          0.8699   -0.9705   -0.8364 N.4       1 <0>        -0.3828
      3 C2         -0.5501   -1.3407   -0.7854 C.3       1 <0>        -0.0229
      4 C3         -0.6803   -2.8671   -0.8139 C.3       1 <0>         0.1126
      5 N2          0.1322   -3.4249    0.2783 N.pl3     1 <0>        -0.6308
      6 C4          1.5290   -2.9798    0.4002 C.3       1 <0>         0.1105
      7 C5          1.5550   -1.4480    0.3714 C.3       1 <0>        -0.0216
      8 C6         -0.4053   -4.3469    1.1708 C.ar      1 <0>         0.3563
      9 C7         -1.6496   -4.9144    0.9014 C.ar      1 <0>        -0.2617
     10 C8         -2.1840   -5.8312    1.7881 C.ar      1 <0>        -0.0090
     11 C9         -1.4522   -6.1540    2.9241 C.ar      1 <0>        -0.0652
     12 C10        -0.2029   -5.5481    3.1406 C.ar      1 <0>         0.2361
     13 N3          0.2754   -4.6723    2.2548 N.ar      1 <0>        -0.5214
     14 N4          0.2802   -6.0364    4.3013 N.2       1 <0>        -0.5864
     15 C11        -0.5735   -6.8945    4.8151 C.2       1 <0>         0.2857
     16 N5         -1.6661   -7.0025    3.9970 N.2       1 <0>        -0.5289
     17 C12        -0.3834   -7.6274    6.0769 C.2       1 <0>        -0.2143
     18 C13         0.7016   -7.3306    6.9053 C.2       1 <0>         0.3030
     19 C14         0.8473   -8.0902    8.1537 C.ar      1 <0>        -0.1350
     20 C15         1.9098   -7.8427    9.0274 C.ar      1 <0>        -0.0570
     21 C16         2.0201   -8.5647   10.1824 C.ar      1 <0>        -0.1597
     22 C17         1.0854   -9.5418   10.4946 C.ar      1 <0>        -0.0659
     23 C18         0.0300   -9.8018    9.6469 C.ar      1 <0>        -0.1696
     24 C19        -0.1024   -9.0791    8.4655 C.ar      1 <0>         0.2097
     25 N6         -1.1529   -9.3239    7.6039 N.am      1 <0>        -0.6467
     26 C20        -1.3019   -8.6334    6.4613 C.2       1 <0>         0.5564
     27 O1         -2.2485   -8.8827    5.7354 O.2       1 <0>        -0.5080
     28 N7          1.6066   -6.3563    6.5617 N.pl3     1 <0>        -0.8226
     29 H1          2.0439    0.7669   -0.9660 H         1 <0>         0.1206
     30 H2          0.4823    0.8469   -1.8163 H         1 <0>         0.1202
     31 H3          0.5344    0.9442   -0.0397 H         1 <0>         0.1188
     32 H4         -0.9934   -0.9552    0.1327 H         1 <0>         0.1298
     33 H5         -1.0676   -0.9157   -1.6454 H         1 <0>         0.1343
     34 H6         -1.7241   -3.1484   -0.6744 H         1 <0>         0.1256
     35 H7         -0.3200   -3.2477   -1.7697 H         1 <0>         0.0788
     36 H8          1.9459   -3.3355    1.3425 H         1 <0>         0.1363
     37 H9          2.1124   -3.3717   -0.4329 H         1 <0>         0.0718
     38 H10         2.5886   -1.1021    0.3638 H         1 <0>         0.1326
     39 H11         1.0479   -1.0593    1.2545 H         1 <0>         0.1293
     40 H12        -2.1917   -4.6403    0.0085 H         1 <0>         0.1106
     41 H13        -3.1464   -6.2847    1.6022 H         1 <0>         0.1137
     42 H14         2.6410   -7.0840    8.7904 H         1 <0>         0.1269
     43 H15         2.8413   -8.3737   10.8573 H         1 <0>         0.1266
     44 H16         1.1861  -10.1045   11.4109 H         1 <0>         0.1290
     45 H17        -0.6919  -10.5646    9.8990 H         1 <0>         0.1332
     46 H18         1.3891   -5.7158    5.8666 H         1 <0>         0.4278
     47 H19         2.4633   -6.3088    7.0142 H         1 <0>         0.3880
     48 H20        -1.8010  -10.0090    7.8307 H         1 <0>         0.4090
     49 H21         1.2950   -1.3889   -1.6503 H         1 <0>         0.4214
@<TRIPOS>BOND
     1    1    2 1
     2    1   29 1
     3    1   30 1
     4    1   31 1
     5    2    7 1
     6    2    3 1
     7    2   49 1
     8    3    4 1
     9    3   32 1
    10    3   33 1
    11    4    5 1
    12    4   34 1
    13    4   35 1
    14    5    6 1
    15    5    8 1
    16    6    7 1
    17    6   36 1
    18    6   37 1
    19    7   38 1
    20    7   39 1
    21    8   13 ar
    22    8    9 ar
    23    9   10 ar
    24    9   40 1
    25   10   11 ar
    26   10   41 1
    27   11   16 1
    28   11   12 ar
    29   12   13 ar
    30   12   14 1
    31   14   15 2
    32   15   16 1
    33   15   17 1
    34   17   26 1
    35   17   18 2
    36   18   19 1
    37   18   28 1
    38   19   24 ar
    39   19   20 ar
    40   20   21 ar
    41   20   42 1
    42   21   22 ar
    43   21   43 1
    44   22   23 ar
    45   22   44 1
    46   23   24 ar
    47   23   45 1
    48   24   25 1
    49   25   26 am
    50   25   48 1
    51   26   27 2
    52   28   46 1
    53   28   47 1
@<TRIPOS>MOLECULE
CHEMBL204524__2
   50    54     0     0     0
SMALL
USER_CHARGES

@<TRIPOS>ATOM
      1 C1         -0.6782    2.3951    1.6824 C.3       1 <0>        -0.0467
      2 N1         -0.7294    0.9575    1.3847 N.4       1 <0>        -0.3845
      3 C2         -2.1078    0.4761    1.5405 C.3       1 <0>        -0.0231
      4 C3         -2.1845   -0.9954    1.1200 C.3       1 <0>         0.1051
      5 N2         -1.1860   -1.7530    1.8901 N.pl3     1 <0>        -0.6267
      6 C4          0.1947   -1.2464    1.9226 C.3       1 <0>         0.1040
      7 C5          0.1590    0.2368    2.3052 C.3       1 <0>        -0.0219
      8 C6         -1.5376   -2.9152    2.5688 C.ar      1 <0>         0.4164
      9 C7         -2.7872   -3.4897    2.3408 C.ar      1 <0>        -0.2259
     10 C8         -3.1382   -4.6339    3.0064 C.ar      1 <0>         0.0144
     11 C9         -2.2176   -5.1919    3.9029 C.ar      1 <0>        -0.0126
     12 C10        -0.9748   -4.5617    4.0861 C.ar      1 <0>         0.2807
     13 N3         -0.6783   -3.4585    3.4150 N.ar      1 <0>        -0.5347
     14 N4         -0.2909   -5.3244    5.0105 N.pl3     1 <0>        -0.5692
     15 C11        -1.1064   -6.3709    5.3604 C.2       1 <0>         0.4050
     16 N5         -2.2400   -6.2862    4.7036 N.2       1 <0>        -0.5156
     17 H1          0.6013   -5.1526    5.3500 H         1 <0>         0.4397
     18 C12        -0.7622   -7.4286    6.3253 C.2       1 <0>        -0.3013
     19 C13        -1.6073   -8.5271    6.4941 C.2       1 <0>         0.3772
     20 C14        -1.2196   -9.5554    7.4683 C.ar      1 <0>        -0.1554
     21 C15        -2.0202  -10.6802    7.6853 C.ar      1 <0>        -0.0477
     22 C16        -1.6342  -11.6214    8.5979 C.ar      1 <0>        -0.1477
     23 C17        -0.4537  -11.4687    9.3113 C.ar      1 <0>        -0.0448
     24 C18         0.3503  -10.3667    9.1130 C.ar      1 <0>        -0.1650
     25 C19        -0.0222   -9.3963    8.1883 C.ar      1 <0>         0.2165
     26 N6          0.7699   -8.2862    7.9740 N.am      1 <0>        -0.6355
     27 C20         0.4300   -7.3404    7.0827 C.2       1 <0>         0.5805
     28 O1          1.1644   -6.3806    6.9254 O.2       1 <0>        -0.5636
     29 N7         -2.7692   -8.6426    5.7695 N.pl3     1 <0>        -0.8032
     30 H2          0.3432    2.7554    1.5594 H         1 <0>         0.1248
     31 H3         -1.3373    2.9313    0.9997 H         1 <0>         0.1250
     32 H4         -1.0023    2.5653    2.7091 H         1 <0>         0.1211
     33 H5         -2.4108    0.5724    2.5831 H         1 <0>         0.1325
     34 H6         -2.7730    1.0687    0.9123 H         1 <0>         0.1432
     35 H7         -3.1809   -1.3846    1.3292 H         1 <0>         0.1293
     36 H8         -1.9697   -1.0836    0.0550 H         1 <0>         0.0934
     37 H9          0.7713   -1.8017    2.6624 H         1 <0>         0.1363
     38 H10         0.6498   -1.3601    0.9387 H         1 <0>         0.0864
     39 H11         1.1643    0.6531    2.2405 H         1 <0>         0.1406
     40 H12        -0.2125    0.3404    3.3246 H         1 <0>         0.1316
     41 H13        -3.4748   -3.0347    1.6433 H         1 <0>         0.1410
     42 H14        -4.1014   -5.0947    2.8444 H         1 <0>         0.1470
     43 H15        -2.9405  -10.8050    7.1341 H         1 <0>         0.1342
     44 H16        -2.2529  -12.4906    8.7655 H         1 <0>         0.1374
     45 H17        -0.1621  -12.2208   10.0294 H         1 <0>         0.1396
     46 H18         1.2667  -10.2570    9.6738 H         1 <0>         0.1417
     47 H19        -2.9070   -8.0919    4.9829 H         1 <0>         0.4291
     48 H20        -3.4515   -9.2748    6.0445 H         1 <0>         0.4058
     49 H21         1.5935   -8.1883    8.4771 H         1 <0>         0.4205
     50 H22        -0.4264    0.8010    0.4351 H         1 <0>         0.4248
@<TRIPOS>BOND
     1    1    2 1
     2    1   30 1
     3    1   31 1
     4    1   32 1
     5    2    7 1
     6    2    3 1
     7    2   50 1
     8    3    4 1
     9    3   33 1
    10    3   34 1
    11    4    5 1
    12    4   35 1
    13    4   36 1
    14    5    6 1
    15    5    8 1
    16    6    7 1
    17    6   37 1
    18    6   38 1
    19    7   39 1
    20    7   40 1
    21    8   13 ar
    22    8    9 ar
    23    9   41 1
    24    9   10 ar
    25   10   42 1
    26   10   11 ar
    27   11   12 ar
    28   11   16 1
    29   12   14 1
    30   12   13 ar
    31   14   15 1
    32   14   17 1
    33   15   18 1
    34   15   16 2
    35   18   27 1
    36   18   19 2
    37   19   20 1
    38   19   29 1
    39   20   25 ar
    40   20   21 ar
    41   21   22 ar
    42   21   43 1
    43   22   23 ar
    44   22   44 1
    45   23   24 ar
    46   23   45 1
    47   24   25 ar
    48   24   46 1
    49   25   26 1
    50   26   27 am
    51   26   49 1
    52   27   28 2
    53   29   47 1
    54   29   48 1
@<TRIPOS>MOLECULE
CHEMBL193306
   52    55     0     0     0
SMALL
USER_CHARGES

@<TRIPOS>ATOM
      1 C1         -0.5876    1.3932    0.7537 C.3       1 <0>        -0.0713
      2 C2         -0.4122   -0.0979    0.6239 C.2       1 <0>        -0.0424
      3 C3         -1.3451   -1.0343    0.8688 C.2       1 <0>        -0.0404
      4 N1         -0.7932   -2.2360    0.6349 N.2       1 <0>        -0.4569
      5 C4          0.4504   -2.0595    0.2542 C.2       1 <0>         0.2674
      6 O1          0.7081   -0.7403    0.2350 O.3       1 <0>        -0.1961
      7 C5          1.4053   -3.1307   -0.0993 C.2       1 <0>        -0.0880
      8 C6          2.7196   -2.9596   -0.4955 C.2       1 <0>         0.1113
      9 N2          3.2614   -4.1668   -0.7285 N.pl3     1 <0>        -0.2311
     10 C7          2.3095   -5.1401   -0.4877 C.2       1 <0>        -0.1118
     11 C8          1.1477   -4.5151   -0.0892 C.2       1 <0>        -0.0164
     12 C9         -0.1502   -5.1845    0.2829 C.3       1 <0>        -0.0185
     13 C10        -0.5201   -4.8160    1.7210 C.3       1 <0>        -0.1596
     14 C11        -1.2561   -4.7150   -0.6645 C.3       1 <0>        -0.1580
     15 C12         2.6697   -6.4973   -0.6724 C.2       1 <0>         0.5383
     16 N3          3.8974   -6.7912   -1.0669 N.2       1 <0>        -0.6243
     17 C13         4.8034   -5.8420   -1.2948 C.2       1 <0>         0.3324
     18 N4          4.5379   -4.5738   -1.1442 N.2       1 <0>        -0.3422
     19 N5          1.7507   -7.5013   -0.4430 N.pl3     1 <0>        -0.6156
     20 C14         2.1503   -8.8425   -0.4982 C.ar      1 <0>         0.1008
     21 C15         3.4866   -9.1723   -0.3542 C.ar      1 <0>        -0.0428
     22 C16         3.8817  -10.5108   -0.4098 C.ar      1 <0>        -0.1539
     23 C17         2.9236  -11.5103   -0.6108 C.ar      1 <0>         0.1841
     24 C18         1.5915  -11.1704   -0.7534 C.ar      1 <0>        -0.1741
     25 C19         1.2016   -9.8440   -0.6923 C.ar      1 <0>         0.1342
     26 F1         -0.1027   -9.5187   -0.8270 F         1 <0>        -0.1191
     27 F2          3.3002  -12.8066   -0.6658 F         1 <0>        -0.0997
     28 C20         5.3051  -10.8696   -0.2575 C.2       1 <0>         0.5755
     29 O2          5.6467  -12.0355   -0.3062 O.2       1 <0>        -0.4979
     30 N6          6.2262   -9.9049   -0.0644 N.am      1 <0>        -0.5939
     31 O3          7.5920  -10.2491    0.0817 O.3       1 <0>        -0.1371
     32 C21         8.4559   -9.1283    0.2799 C.3       1 <0>        -0.0032
     33 H1          0.3421    1.8934    0.4825 H         1 <0>         0.0785
     34 H2         -1.3856    1.7243    0.0891 H         1 <0>         0.0909
     35 H3         -0.8463    1.6404    1.7833 H         1 <0>         0.0910
     36 H4         -2.3582   -0.8524    1.1958 H         1 <0>         0.1875
     37 H5          3.2265   -2.0118   -0.6007 H         1 <0>         0.1933
     38 H6         -0.0375   -6.2657    0.2024 H         1 <0>         0.0549
     39 H7         -0.6328   -3.7348    1.8015 H         1 <0>         0.0991
     40 H8         -1.4589   -5.3001    1.9902 H         1 <0>         0.0611
     41 H9          0.2678   -5.1504    2.3959 H         1 <0>         0.0453
     42 H10        -0.9926   -4.9776   -1.6890 H         1 <0>         0.0459
     43 H11        -2.1948   -5.1992   -0.3953 H         1 <0>         0.0619
     44 H12        -1.3688   -3.6339   -0.5840 H         1 <0>         0.0960
     45 H13         5.7928   -6.1326   -1.6157 H         1 <0>         0.2244
     46 H14         0.8280   -7.2780   -0.2435 H         1 <0>         0.4308
     47 H15         4.2220   -8.3966   -0.1996 H         1 <0>         0.1819
     48 H16         0.8524  -11.9424   -0.9089 H         1 <0>         0.1679
     49 H17         5.9537   -8.9748   -0.0255 H         1 <0>         0.4070
     50 H18         8.3831   -8.4576   -0.5763 H         1 <0>         0.0588
     51 H19         8.1597   -8.5966    1.1841 H         1 <0>         0.0574
     52 H20         9.4839   -9.4756    0.3829 H         1 <0>         0.1166
@<TRIPOS>BOND
     1    1    2 1
     2    1   33 1
     3    1   34 1
     4    1   35 1
     5    2    6 1
     6    2    3 2
     7    3    4 1
     8    3   36 1
     9    4    5 2
    10    5    6 1
    11    5    7 1
    12    7   11 1
    13    7    8 2
    14    8    9 1
    15    8   37 1
    16    9   18 1
    17    9   10 1
    18   10   11 2
    19   10   15 1
    20   11   12 1
    21   12   13 1
    22   12   14 1
    23   12   38 1
    24   13   39 1
    25   13   40 1
    26   13   41 1
    27   14   42 1
    28   14   43 1
    29   14   44 1
    30   15   16 2
    31   15   19 1
    32   16   17 1
    33   17   18 2
    34   17   45 1
    35   19   20 1
    36   19   46 1
    37   20   25 ar
    38   20   21 ar
    39   21   22 ar
    40   21   47 1
    41   22   23 ar
    42   22   28 1
    43   23   24 ar
    44   23   27 1
    45   24   25 ar
    46   24   48 1
    47   25   26 1
    48   28   29 2
    49   28   30 am
    50   30   31 1
    51   30   49 1
    52   31   32 1
    53   32   50 1
    54   32   51 1
    55   32   52 1
@<TRIPOS>MOLECULE
CHEMBL378024
   77    82     0     0     0
SMALL
USER_CHARGES

@<TRIPOS>ATOM
      1 C1         -0.4615    2.0588   -1.5425 C.3       1 <0>        -0.1656
      2 C2         -0.3390    0.7213   -0.8097 C.3       1 <0>         0.1863
      3 C3          0.2462    0.9552    0.5844 C.3       1 <0>        -0.1664
      4 C4         -1.7228    0.0816   -0.6812 C.3       1 <0>        -0.1563
      5 N1          0.5431   -0.1709   -1.5662 N.am      1 <0>        -0.7342
      6 C5          1.8201    0.1876   -1.8051 C.2       1 <0>         0.7069
      7 O1          2.2402    1.2516   -1.3928 O.2       1 <0>        -0.5677
      8 N2          2.6316   -0.6332   -2.5010 N.am      1 <0>        -0.6852
      9 C6          3.9300   -0.2214   -2.8294 C.ar      1 <0>         0.1375
     10 C7          4.6541    0.5698   -1.9375 C.ar      1 <0>        -0.0591
     11 C8          5.9204    0.9803   -2.2394 C.ar      1 <0>        -0.1213
     12 C9          6.5047    0.6109   -3.4491 C.ar      1 <0>         0.1164
     13 C10         5.7824   -0.1866   -4.3544 C.ar      1 <0>        -0.1203
     14 C11         4.4897   -0.6055   -4.0324 C.ar      1 <0>        -0.0647
     15 C12         6.6609   -0.3965   -5.5117 C.2       1 <0>         0.1457
     16 N3          7.7875    0.2347   -5.2723 N.2       1 <0>        -0.2220
     17 N4          7.7272    0.8602   -4.0231 N.pl3     1 <0>        -0.4864
     18 H1          8.4371    1.3876   -3.6247 H         1 <0>         0.4483
     19 C13         6.3373   -1.1755   -6.7229 C.2       1 <0>         0.3768
     20 N5          7.1776   -1.3611   -7.7879 N.pl3     1 <0>        -0.5819
     21 H2          8.0773   -1.0102   -7.8795 H         1 <0>         0.4304
     22 C14         6.5032   -2.1437   -8.7090 C.ar      1 <0>         0.0170
     23 C15         6.8299   -2.6532   -9.9578 C.ar      1 <0>        -0.0589
     24 C16         5.9168   -3.4204  -10.6484 C.ar      1 <0>        -0.1604
     25 C17         4.6638   -3.6893  -10.1004 C.ar      1 <0>         0.2007
     26 C18         4.3226   -3.1892   -8.8582 C.ar      1 <0>        -0.1474
     27 C19         5.2417   -2.4096   -8.1482 C.ar      1 <0>         0.1004
     28 N6          5.2035   -1.7991   -6.9387 N.2       1 <0>        -0.4705
     29 N7          3.7461   -4.4696  -10.8122 N.pl3     1 <0>        -0.6356
     30 C20         2.3772   -4.6576  -10.3127 C.3       1 <0>         0.1272
     31 C21         1.3911   -4.2677  -11.4183 C.3       1 <0>        -0.1592
     32 C22         1.7122   -5.0622  -12.6863 C.3       1 <0>         0.0278
     33 C23         3.1273   -4.7216  -13.1591 C.3       1 <0>        -0.1597
     34 C24         4.1313   -5.1117  -12.0763 C.3       1 <0>         0.1280
     35 N8          0.7478   -4.7152  -13.7387 N.4       1 <0>        -0.3810
     36 C25        -0.6096   -5.0355  -13.2813 C.3       1 <0>        -0.0118
     37 C26        -1.6247   -4.6014  -14.3408 C.3       1 <0>        -0.1453
     38 C27        -1.3371   -5.3428  -15.6495 C.3       1 <0>        -0.1392
     39 C28         0.1058   -5.0607  -16.0781 C.3       1 <0>        -0.1453
     40 C29         1.0568   -5.4778  -14.9542 C.3       1 <0>        -0.0115
     41 H3          0.5244    2.5146   -1.6340 H         1 <0>         0.0807
     42 H4         -0.8784    1.8922   -2.5357 H         1 <0>         0.0520
     43 H5         -1.1177    2.7226   -0.9796 H         1 <0>         0.0644
     44 H6         -0.4100    1.6191    1.1472 H         1 <0>         0.0648
     45 H7          0.3335    0.0024    1.1064 H         1 <0>         0.0538
     46 H8          1.2322    1.4110    0.4928 H         1 <0>         0.0805
     47 H9         -2.1398   -0.0851   -1.6744 H         1 <0>         0.0615
     48 H10        -1.6356   -0.8713   -0.1592 H         1 <0>         0.0628
     49 H11        -2.3791    0.7454   -0.1184 H         1 <0>         0.0772
     50 H12         0.2080   -1.0197   -1.8951 H         1 <0>         0.3958
     51 H13         2.3168   -1.5089   -2.7745 H         1 <0>         0.4065
     52 H14         4.2078    0.8609   -0.9981 H         1 <0>         0.1529
     53 H15         6.4699    1.5927   -1.5399 H         1 <0>         0.1356
     54 H16         3.9302   -1.2218   -4.7206 H         1 <0>         0.1435
     55 H17         7.7990   -2.4483  -10.3884 H         1 <0>         0.1300
     56 H18         6.1736   -3.8153  -11.6203 H         1 <0>         0.1325
     57 H19         3.3504   -3.3992   -8.4374 H         1 <0>         0.1311
     58 H20         2.2275   -5.7026  -10.0415 H         1 <0>         0.0735
     59 H21         2.2166   -4.0248   -9.4399 H         1 <0>         0.1047
     60 H22         0.3747   -4.4930  -11.0954 H         1 <0>         0.0977
     61 H23         1.4796   -3.2011  -11.6251 H         1 <0>         0.0917
     62 H24         1.6477   -6.1291  -12.4724 H         1 <0>         0.1369
     63 H25         3.3467   -5.2701  -14.0751 H         1 <0>         0.0979
     64 H26         3.1994   -3.6508  -13.3495 H         1 <0>         0.0916
     65 H27         5.1276   -4.7784  -12.3668 H         1 <0>         0.1032
     66 H28         4.1278   -6.1946  -11.9521 H         1 <0>         0.0732
     67 H29        -0.6932   -6.1099  -13.1173 H         1 <0>         0.1280
     68 H30        -0.8117   -4.5096  -12.3481 H         1 <0>         0.1316
     69 H31        -2.6318   -4.8417  -14.0001 H         1 <0>         0.1118
     70 H32        -1.5421   -3.5270  -14.5054 H         1 <0>         0.0868
     71 H33        -1.4695   -6.4141  -15.4982 H         1 <0>         0.0816
     72 H34        -2.0217   -4.9954  -16.4233 H         1 <0>         0.0939
     73 H35         0.3357   -5.6293  -16.9792 H         1 <0>         0.1117
     74 H36         0.2243   -3.9959  -16.2787 H         1 <0>         0.0868
     75 H37         2.0850   -5.2784  -15.2561 H         1 <0>         0.1313
     76 H38         0.9376   -6.5427  -14.7545 H         1 <0>         0.1280
     77 H39         0.8093   -3.7279  -13.9375 H         1 <0>         0.4200
@<TRIPOS>BOND
     1    1    2 1
     2    1   41 1
     3    1   42 1
     4    1   43 1
     5    2    3 1
     6    2    4 1
     7    2    5 1
     8    3   44 1
     9    3   45 1
    10    3   46 1
    11    4   47 1
    12    4   48 1
    13    4   49 1
    14    5    6 am
    15    5   50 1
    16    6    7 2
    17    6    8 am
    18    8    9 1
    19    8   51 1
    20    9   14 ar
    21    9   10 ar
    22   10   11 ar
    23   10   52 1
    24   11   12 ar
    25   11   53 1
    26   12   17 1
    27   12   13 ar
    28   13   14 ar
    29   13   15 1
    30   14   54 1
    31   15   16 2
    32   15   19 1
    33   16   17 1
    34   17   18 1
    35   19   28 2
    36   19   20 1
    37   20   21 1
    38   20   22 1
    39   22   27 ar
    40   22   23 ar
    41   23   24 ar
    42   23   55 1
    43   24   25 ar
    44   24   56 1
    45   25   26 ar
    46   25   29 1
    47   26   27 ar
    48   26   57 1
    49   27   28 1
    50   29   34 1
    51   29   30 1
    52   30   31 1
    53   30   58 1
    54   30   59 1
    55   31   32 1
    56   31   60 1
    57   31   61 1
    58   32   33 1
    59   32   35 1
    60   32   62 1
    61   33   34 1
    62   33   63 1
    63   33   64 1
    64   34   65 1
    65   34   66 1
    66   35   40 1
    67   35   36 1
    68   35   77 1
    69   36   37 1
    70   36   67 1
    71   36   68 1
    72   37   38 1
    73   37   69 1
    74   37   70 1
    75   38   39 1
    76   38   71 1
    77   38   72 1
    78   39   40 1
    79   39   73 1
    80   39   74 1
    81   40   75 1
    82   40   76 1
@<TRIPOS>MOLECULE
CHEMBL378024__1
   77    82     0     0     0
SMALL
USER_CHARGES

@<TRIPOS>ATOM
      1 C1         -0.4985    2.1098   -1.6037 C.3       1 <0>        -0.1659
      2 C2         -0.3720    0.7800   -0.8577 C.3       1 <0>         0.1862
      3 C3          0.2094    1.0299    0.5353 C.3       1 <0>        -0.1659
      4 C4         -1.7534    0.1358   -0.7258 C.3       1 <0>        -0.1566
      5 N1          0.5154   -0.1158   -1.6036 N.am      1 <0>        -0.7339
      6 C5          1.7914    0.2457   -1.8434 C.2       1 <0>         0.7073
      7 O1          2.2062    1.3153   -1.4406 O.2       1 <0>        -0.5685
      8 N2          2.6077   -0.5784   -2.5296 N.am      1 <0>        -0.6855
      9 C6          3.9052   -0.1645   -2.8593 C.ar      1 <0>         0.1381
     10 C7          4.6240    0.6384   -1.9738 C.ar      1 <0>        -0.0585
     11 C8          5.8889    1.0521   -2.2775 C.ar      1 <0>        -0.1227
     12 C9          6.4773    0.6732   -3.4822 C.ar      1 <0>         0.1166
     13 C10         5.7604   -0.1364   -4.3810 C.ar      1 <0>        -0.1217
     14 C11         4.4689   -0.5580   -4.0574 C.ar      1 <0>        -0.0646
     15 C12         6.6422   -0.3539   -5.5344 C.2       1 <0>         0.1518
     16 N3          7.7655    0.2847   -5.2991 N.2       1 <0>        -0.2279
     17 N4          7.6998    0.9223   -4.0563 N.pl3     1 <0>        -0.4886
     18 H1          8.4066    1.4566   -3.6617 H         1 <0>         0.4473
     19 C13         6.3243   -1.1458   -6.7387 C.2       1 <0>         0.3542
     20 N5          5.1918   -1.7707   -6.9537 N.2       1 <0>        -0.4479
     21 C14         5.2376   -2.3969   -8.1558 C.ar      1 <0>         0.0107
     22 C15         4.3234   -3.1877   -8.8604 C.ar      1 <0>        -0.0074
     23 C16         4.6595   -3.6946  -10.0824 C.ar      1 <0>        -0.1872
     24 C17         5.9100   -3.4327  -10.6397 C.ar      1 <0>         0.2300
     25 C18         6.8296   -2.6524   -9.9579 C.ar      1 <0>        -0.1986
     26 C19         6.4999   -2.1305   -8.7155 C.ar      1 <0>         0.1064
     27 N6          7.1665   -1.3341   -7.8041 N.pl3     1 <0>        -0.5872
     28 N7          6.2380   -3.9602  -11.8922 N.pl3     1 <0>        -0.6325
     29 C20         7.5929   -3.8043  -12.4387 C.3       1 <0>         0.1262
     30 C21         8.1317   -5.1860  -12.8226 C.3       1 <0>        -0.1593
     31 C22         7.1450   -5.8677  -13.7734 C.3       1 <0>         0.0275
     32 C23         5.7995   -6.0528  -13.0682 C.3       1 <0>        -0.1598
     33 C24         5.2360   -4.6862  -12.6844 C.3       1 <0>         0.1262
     34 N8          7.6743   -7.1794  -14.1699 N.4       1 <0>        -0.3809
     35 C25         8.9682   -7.0011  -14.8397 C.3       1 <0>        -0.0119
     36 C26         9.5621   -8.3691  -15.1825 C.3       1 <0>        -0.1453
     37 C27         8.6029   -9.1173  -16.1127 C.3       1 <0>        -0.1393
     38 C28         7.2349   -9.2321  -15.4340 C.3       1 <0>        -0.1453
     39 C29         6.7273   -7.8322  -15.0818 C.3       1 <0>        -0.0117
     40 H2          0.4857    2.5688   -1.6976 H         1 <0>         0.0805
     41 H3         -0.9126    1.9318   -2.5961 H         1 <0>         0.0529
     42 H4         -1.1587    2.7763   -1.0487 H         1 <0>         0.0643
     43 H5         -0.4508    1.6964    1.0903 H         1 <0>         0.0646
     44 H6          0.2995    0.0825    1.0667 H         1 <0>         0.0535
     45 H7          1.1936    1.4888    0.4413 H         1 <0>         0.0802
     46 H8         -2.1676   -0.0423   -1.7182 H         1 <0>         0.0624
     47 H9         -1.6633   -0.8116   -0.1944 H         1 <0>         0.0626
     48 H10        -2.4136    0.8023   -0.1708 H         1 <0>         0.0770
     49 H11         0.1845   -0.9692   -1.9250 H         1 <0>         0.3964
     50 H12         2.2971   -1.4581   -2.7952 H         1 <0>         0.4070
     51 H13         4.1748    0.9363   -1.0379 H         1 <0>         0.1528
     52 H14         6.4341    1.6741   -1.5831 H         1 <0>         0.1350
     53 H15         3.9135   -1.1833   -4.7407 H         1 <0>         0.1440
     54 H16         3.3520   -3.3972   -8.4373 H         1 <0>         0.1372
     55 H17         3.9502   -4.3044  -10.6223 H         1 <0>         0.1322
     56 H18         7.7982   -2.4514  -10.3914 H         1 <0>         0.1246
     57 H19         7.5595   -3.1667  -13.3221 H         1 <0>         0.0746
     58 H20         8.2411   -3.3556  -11.6859 H         1 <0>         0.1026
     59 H21         9.0966   -5.0756  -13.3175 H         1 <0>         0.0981
     60 H22         8.2500   -5.7927  -11.9248 H         1 <0>         0.0920
     61 H23         7.0083   -5.2484  -14.6599 H         1 <0>         0.1372
     62 H24         5.1044   -6.5593  -13.7379 H         1 <0>         0.0993
     63 H25         5.9398   -6.6513  -12.1681 H         1 <0>         0.0924
     64 H26         4.3296   -4.8192  -12.0937 H         1 <0>         0.1062
     65 H27         5.0061   -4.1221  -13.5883 H         1 <0>         0.0748
     66 H28         8.8268   -6.4271  -15.7554 H         1 <0>         0.1282
     67 H29         9.6488   -6.4657  -14.1777 H         1 <0>         0.1310
     68 H30        10.5219   -8.2345  -15.6813 H         1 <0>         0.1119
     69 H31         9.7042   -8.9439  -14.2674 H         1 <0>         0.0869
     70 H32         8.5004   -8.5682  -17.0487 H         1 <0>         0.0817
     71 H33         8.9944  -10.1143  -16.3146 H         1 <0>         0.0941
     72 H34         6.5312   -9.7144  -16.1124 H         1 <0>         0.1122
     73 H35         7.3287   -9.8249  -14.5240 H         1 <0>         0.0870
     74 H36         5.7534   -7.9103  -14.5985 H         1 <0>         0.1317
     75 H37         6.6336   -7.2404  -15.9923 H         1 <0>         0.1282
     76 H38         7.7989   -7.7528  -13.3491 H         1 <0>         0.4200
     77 H39         8.0633   -0.9769   -7.8992 H         1 <0>         0.4289
@<TRIPOS>BOND
     1    1    2 1
     2    1   40 1
     3    1   41 1
     4    1   42 1
     5    2    3 1
     6    2    4 1
     7    2    5 1
     8    3   43 1
     9    3   44 1
    10    3   45 1
    11    4   46 1
    12    4   47 1
    13    4   48 1
    14    5    6 am
    15    5   49 1
    16    6    7 2
    17    6    8 am
    18    8    9 1
    19    8   50 1
    20    9   14 ar
    21    9   10 ar
    22   10   11 ar
    23   10   51 1
    24   11   12 ar
    25   11   52 1
    26   12   17 1
    27   12   13 ar
    28   13   14 ar
    29   13   15 1
    30   14   53 1
    31   15   16 2
    32   15   19 1
    33   16   17 1
    34   17   18 1
    35   19   27 1
    36   19   20 2
    37   20   21 1
    38   21   26 ar
    39   21   22 ar
    40   22   23 ar
    41   22   54 1
    42   23   24 ar
    43   23   55 1
    44   24   25 ar
    45   24   28 1
    46   25   26 ar
    47   25   56 1
    48   26   27 1
    49   27   77 1
    50   28   33 1
    51   28   29 1
    52   29   30 1
    53   29   57 1
    54   29   58 1
    55   30   31 1
    56   30   59 1
    57   30   60 1
    58   31   32 1
    59   31   34 1
    60   31   61 1
    61   32   33 1
    62   32   62 1
    63   32   63 1
    64   33   64 1
    65   33   65 1
    66   34   39 1
    67   34   35 1
    68   34   76 1
    69   35   36 1
    70   35   66 1
    71   35   67 1
    72   36   37 1
    73   36   68 1
    74   36   69 1
    75   37   38 1
    76   37   70 1
    77   37   71 1
    78   38   39 1
    79   38   72 1
    80   38   73 1
    81   39   74 1
    82   39   75 1
@<TRIPOS>MOLECULE
CHEMBL205406
   30    33     0     0     0
SMALL
USER_CHARGES

@<TRIPOS>ATOM
      1 C1         -0.0207    1.3726   -0.0671 C.ar      1 <0>        -0.1086
      2 C2          1.1648    2.0924   -0.0329 C.ar      1 <0>        -0.1243
      3 C3          2.3775    1.4415   -0.0186 C.ar      1 <0>        -0.0764
      4 C4          2.4158    0.0438   -0.0386 C.ar      1 <0>         0.0624
      5 C5          1.2115   -0.6801   -0.0732 C.ar      1 <0>         0.0438
      6 C6         -0.0009   -0.0066   -0.0872 C.ar      1 <0>        -0.1077
      7 N1          1.5644   -2.0183   -0.0861 N.pl3     1 <0>        -0.5843
      8 H1          0.9565   -2.7738   -0.1094 H         1 <0>         0.4342
      9 C7          2.9335   -2.0762   -0.0598 C.2       1 <0>         0.3947
     10 N2          3.4278   -0.8592   -0.0320 N.2       1 <0>        -0.5360
     11 C8          3.7293   -3.3142   -0.0620 C.2       1 <0>        -0.3078
     12 C9          5.1188   -3.2468   -0.1637 C.2       1 <0>         0.3998
     13 C10         5.8872   -4.4545   -0.1652 C.2       1 <0>        -0.2257
     14 C11         7.3324   -4.6060   -0.2607 C.2       1 <0>        -0.0961
     15 C12         7.8641   -5.8359   -0.2442 C.2       1 <0>        -0.1813
     16 S1          6.4393   -6.8966   -0.0967 S.3       1 <0>         0.1260
     17 C13         5.1727   -5.6519   -0.0619 C.2       1 <0>         0.1431
     18 N3          3.8169   -5.6970    0.0363 N.am      1 <0>        -0.5831
     19 C14         3.0840   -4.5654    0.0446 C.2       1 <0>         0.5778
     20 O1          1.8693   -4.6226    0.1384 O.2       1 <0>        -0.5502
     21 N4          5.7474   -2.0261   -0.2623 N.pl3     1 <0>        -0.8084
     22 H2         -0.9656    1.8955   -0.0736 H         1 <0>         0.1296
     23 H3          1.1360    3.1719   -0.0178 H         1 <0>         0.1291
     24 H4          3.2964    2.0084    0.0077 H         1 <0>         0.1277
     25 H5         -0.9275   -0.5608   -0.1141 H         1 <0>         0.1225
     26 H6          7.9683   -3.7371   -0.3443 H         1 <0>         0.1445
     27 H7          8.9051   -6.1168   -0.3057 H         1 <0>         0.2003
     28 H8          5.2331   -1.2077   -0.1809 H         1 <0>         0.4311
     29 H9          6.7047   -1.9843   -0.4133 H         1 <0>         0.4004
     30 H10         3.3710   -6.5557    0.1057 H         1 <0>         0.4230
@<TRIPOS>BOND
     1    1    6 ar
     2    1    2 ar
     3    1   22 1
     4    2    3 ar
     5    2   23 1
     6    3    4 ar
     7    3   24 1
     8    4   10 1
     9    4    5 ar
    10    5    6 ar
    11    5    7 1
    12    6   25 1
    13    7    8 1
    14    7    9 1
    15    9   10 2
    16    9   11 1
    17   11   19 1
    18   11   12 2
    19   12   13 1
    20   12   21 1
    21   13   17 2
    22   13   14 1
    23   14   15 2
    24   14   26 1
    25   15   16 1
    26   15   27 1
    27   16   17 1
    28   17   18 1
    29   18   19 am
    30   18   30 1
    31   19   20 2
    32   21   28 1
    33   21   29 1
@<TRIPOS>MOLECULE
CHEMBL502835
   74    78     0     0     0
SMALL
USER_CHARGES

@<TRIPOS>ATOM
      1 C1          1.2616   -3.4202   -3.5927 C.3       1 <0>        -0.0456
      2 N1          0.4160   -4.1435   -2.6336 N.4       1 <0>        -0.3892
      3 C2         -0.5808   -3.2238   -2.0695 C.3       1 <0>        -0.0012
      4 C3         -1.4739   -3.9812   -1.0844 C.3       1 <0>         0.0259
      5 N2         -0.6443   -4.5495   -0.0125 N.3       1 <0>        -0.5236
      6 C4          0.3747   -5.4533   -0.5647 C.3       1 <0>         0.0191
      7 C5          1.2526   -4.6838   -1.5540 C.3       1 <0>         0.0006
      8 C6         -1.4732   -5.2379    0.9860 C.3       1 <0>         0.0378
      9 C7         -0.6284   -5.5909    2.1829 C.2       1 <0>         0.5152
     10 O1          0.5484   -5.2979    2.2024 O.2       1 <0>        -0.5111
     11 N3         -1.1806   -6.2323    3.2319 N.am      1 <0>        -0.5637
     12 C8         -2.6224   -6.4907    3.2561 C.3       1 <0>         0.0715
     13 C9         -0.3759   -6.6518    4.2988 C.ar      1 <0>         0.0871
     14 C10         0.2366   -5.7121    5.1178 C.ar      1 <0>        -0.0574
     15 C11         1.0300   -6.1252    6.1689 C.ar      1 <0>        -0.1569
     16 C12         1.2155   -7.4812    6.4080 C.ar      1 <0>         0.2054
     17 C13         0.6023   -8.4210    5.5889 C.ar      1 <0>        -0.1622
     18 C14        -0.1952   -8.0074    4.5410 C.ar      1 <0>        -0.0740
     19 N4          2.0196   -7.9000    7.4727 N.pl3     1 <0>        -0.6660
     20 C15         2.3385   -9.2246    7.6101 C.2       1 <0>         0.3209
     21 C16         1.9918   -9.9070    8.7726 C.2       1 <0>        -0.2130
     22 C17         2.3855  -11.2777    9.1508 C.ar      1 <0>        -0.0556
     23 C18         3.1612  -12.2579    8.5334 C.ar      1 <0>        -0.0867
     24 C19         3.3512  -13.4637    9.1447 C.ar      1 <0>        -0.0788
     25 C20         2.7691  -13.7196   10.3923 C.ar      1 <0>        -0.0928
     26 C21         1.9904  -12.7442   11.0190 C.ar      1 <0>        -0.0681
     27 C22         1.7950  -11.5201   10.4027 C.ar      1 <0>         0.1316
     28 N5          1.0862  -10.3847   10.7764 N.am      1 <0>        -0.6518
     29 C23         1.1912   -9.4251    9.8420 C.2       1 <0>         0.5641
     30 O2          0.6797   -8.3204    9.9012 O.2       1 <0>        -0.5066
     31 C24         2.9786  -15.0238   11.0465 C.2       1 <0>         0.5078
     32 O3          2.4745  -15.2484   12.1291 O.2       1 <0>        -0.4985
     33 O4          3.7292  -15.9670   10.4439 O.3       1 <0>        -0.3475
     34 C25         3.8900  -17.2074   11.1350 C.3       1 <0>         0.0335
     35 C26         3.0491   -9.9280    6.5266 C.ar      1 <0>        -0.0945
     36 C27         2.5353  -11.1199    6.0077 C.ar      1 <0>        -0.0836
     37 C28         3.2056  -11.7722    4.9944 C.ar      1 <0>        -0.1223
     38 C29         4.3842  -11.2496    4.4911 C.ar      1 <0>        -0.0948
     39 C30         4.8990  -10.0700    4.9999 C.ar      1 <0>        -0.1201
     40 C31         4.2369   -9.4033    6.0093 C.ar      1 <0>        -0.0769
     41 H1          2.0005   -4.1028   -4.0125 H         1 <0>         0.1242
     42 H2          0.6409   -3.0191   -4.3940 H         1 <0>         0.1240
     43 H3          1.7707   -2.6021   -3.0833 H         1 <0>         0.1233
     44 H4         -0.0726   -2.4121   -1.5490 H         1 <0>         0.1387
     45 H5         -1.1925   -2.8136   -2.8730 H         1 <0>         0.1374
     46 H6         -2.2042   -3.2957   -0.6544 H         1 <0>         0.1250
     47 H7         -1.9927   -4.7846   -1.6074 H         1 <0>         0.0625
     48 H8          0.9931   -5.8418    0.2445 H         1 <0>         0.1394
     49 H9         -0.1136   -6.2810   -1.0791 H         1 <0>         0.0568
     50 H10         2.0001   -5.3559   -1.9754 H         1 <0>         0.1358
     51 H11         1.7514   -3.8646   -1.0362 H         1 <0>         0.1396
     52 H12        -2.2873   -4.5829    1.2963 H         1 <0>         0.1190
     53 H13        -1.8852   -6.1484    0.5508 H         1 <0>         0.0787
     54 H14        -2.8265   -7.4556    2.7921 H         1 <0>         0.0645
     55 H15        -2.9721   -6.5027    4.2884 H         1 <0>         0.0839
     56 H16        -3.1415   -5.7059    2.7058 H         1 <0>         0.0756
     57 H17         0.0924   -4.6580    4.9319 H         1 <0>         0.1260
     58 H18         1.5068   -5.3944    6.8053 H         1 <0>         0.1322
     59 H19         0.7466   -9.4751    5.7743 H         1 <0>         0.1299
     60 H20        -0.6754   -8.7379    3.9069 H         1 <0>         0.1257
     61 H21         2.3516   -7.2522    8.1139 H         1 <0>         0.4228
     62 H22         3.6115  -12.0635    7.5712 H         1 <0>         0.1423
     63 H23         3.9518  -14.2222    8.6648 H         1 <0>         0.1459
     64 H24         1.5419  -12.9445   11.9809 H         1 <0>         0.1452
     65 H25         0.5863  -10.2954   11.6029 H         1 <0>         0.4215
     66 H26         4.5143  -17.8756   10.5418 H         1 <0>         0.1062
     67 H27         4.3650  -17.0271   12.0993 H         1 <0>         0.0635
     68 H28         2.9134  -17.6657   11.2910 H         1 <0>         0.0633
     69 H29         1.6159  -11.5291    6.3997 H         1 <0>         0.1312
     70 H30         2.8100  -12.6934    4.5926 H         1 <0>         0.1325
     71 H31         4.9049  -11.7651    3.6977 H         1 <0>         0.1286
     72 H32         5.8192   -9.6681    4.6022 H         1 <0>         0.1296
     73 H33         4.6373   -8.4804    6.4020 H         1 <0>         0.1260
     74 H34        -0.0549   -4.9010   -3.1053 H         1 <0>         0.4216
@<TRIPOS>BOND
     1    1    2 1
     2    1   41 1
     3    1   42 1
     4    1   43 1
     5    2    7 1
     6    2    3 1
     7    2   74 1
     8    3    4 1
     9    3   44 1
    10    3   45 1
    11    4    5 1
    12    4   46 1
    13    4   47 1
    14    5    6 1
    15    5    8 1
    16    6    7 1
    17    6   48 1
    18    6   49 1
    19    7   50 1
    20    7   51 1
    21    8    9 1
    22    8   52 1
    23    8   53 1
    24    9   10 2
    25    9   11 am
    26   11   12 1
    27   11   13 1
    28   12   54 1
    29   12   55 1
    30   12   56 1
    31   13   18 ar
    32   13   14 ar
    33   14   15 ar
    34   14   57 1
    35   15   16 ar
    36   15   58 1
    37   16   17 ar
    38   16   19 1
    39   17   18 ar
    40   17   59 1
    41   18   60 1
    42   19   20 1
    43   19   61 1
    44   20   21 2
    45   20   35 1
    46   21   29 1
    47   21   22 1
    48   22   27 ar
    49   22   23 ar
    50   23   24 ar
    51   23   62 1
    52   24   25 ar
    53   24   63 1
    54   25   26 ar
    55   25   31 1
    56   26   27 ar
    57   26   64 1
    58   27   28 1
    59   28   29 am
    60   28   65 1
    61   29   30 2
    62   31   32 2
    63   31   33 1
    64   33   34 1
    65   34   66 1
    66   34   67 1
    67   34   68 1
    68   35   40 ar
    69   35   36 ar
    70   36   37 ar
    71   36   69 1
    72   37   38 ar
    73   37   70 1
    74   38   39 ar
    75   38   71 1
    76   39   40 ar
    77   39   72 1
    78   40   73 1
@<TRIPOS>MOLECULE
CHEMBL502835__1
   74    78     0     0     0
SMALL
USER_CHARGES

@<TRIPOS>ATOM
      1 C1          1.5229   -3.0496   -3.4162 C.3       1 <0>        -0.0457
      2 N1          0.6566   -3.8061   -2.5023 N.4       1 <0>        -0.3892
      3 C2         -0.3576   -2.9083   -1.9341 C.3       1 <0>        -0.0012
      4 C3         -1.2720   -3.6998   -0.9964 C.3       1 <0>         0.0260
      5 N2         -0.4670   -4.2995    0.0771 N.3       1 <0>        -0.5236
      6 C4          0.5690   -5.1819   -0.4780 C.3       1 <0>         0.0190
      7 C5          1.4682   -4.3781   -1.4199 C.3       1 <0>         0.0005
      8 C6         -1.3178   -5.0223    1.0320 C.3       1 <0>         0.0376
      9 C7         -0.5017   -5.4109    2.2378 C.2       1 <0>         0.5154
     10 O1          0.6731   -5.1148    2.2960 O.2       1 <0>        -0.5104
     11 N3         -1.0772   -6.0874    3.2515 N.am      1 <0>        -0.5649
     12 C8         -2.5189   -6.3471    3.2336 C.3       1 <0>         0.0716
     13 C9         -0.2970   -6.5422    4.3221 C.ar      1 <0>         0.0906
     14 C10         0.2942   -5.6303    5.1869 C.ar      1 <0>        -0.0579
     15 C11         1.0635   -6.0782    6.2418 C.ar      1 <0>        -0.1588
     16 C12         1.2461   -7.4414    6.4386 C.ar      1 <0>         0.1981
     17 C13         0.6543   -8.3533    5.5735 C.ar      1 <0>        -0.1571
     18 C14        -0.1192   -7.9050    4.5219 C.ar      1 <0>        -0.0737
     19 N4          2.0259   -7.8954    7.5069 N.pl3     1 <0>        -0.6762
     20 C15         2.3385   -9.2246    7.6101 C.2       1 <0>         0.3257
     21 C16         1.9759   -9.9385    8.7486 C.2       1 <0>        -0.2166
     22 C17         1.1431   -9.4624    9.8697 C.ar      1 <0>        -0.0586
     23 C18         0.5006   -8.2556   10.1425 C.ar      1 <0>        -0.0823
     24 C19        -0.2162   -8.1091   11.2951 C.ar      1 <0>        -0.0791
     25 C20        -0.3088   -9.1688   12.2056 C.ar      1 <0>        -0.0932
     26 C21         0.3311  -10.3817   11.9415 C.ar      1 <0>        -0.0676
     27 C22         1.0591  -10.5348   10.7739 C.ar      1 <0>         0.1333
     28 N5          1.7856  -11.5996   10.2546 N.am      1 <0>        -0.6520
     29 C23         2.3262  -11.2772    9.0677 C.2       1 <0>         0.5660
     30 O2          3.0094  -12.0138    8.3776 O.2       1 <0>        -0.4968
     31 C24        -1.0846   -9.0034   13.4481 C.2       1 <0>         0.5076
     32 O3         -1.1666   -9.9215   14.2399 O.2       1 <0>        -0.4978
     33 O4         -1.7028   -7.8340   13.7058 O.3       1 <0>        -0.3481
     34 C25        -2.4369   -7.7440   14.9286 C.3       1 <0>         0.0335
     35 C26         3.0591   -9.8996    6.5152 C.ar      1 <0>        -0.0978
     36 C27         4.2176   -9.3290    5.9802 C.ar      1 <0>        -0.0768
     37 C28         4.8862   -9.9661    4.9562 C.ar      1 <0>        -0.1289
     38 C29         4.4130  -11.1675    4.4581 C.ar      1 <0>        -0.0926
     39 C30         3.2666  -11.7386    4.9828 C.ar      1 <0>        -0.1241
     40 C31         2.5905  -11.1160    6.0109 C.ar      1 <0>        -0.0444
     41 H1          2.2748   -3.7160   -3.8390 H         1 <0>         0.1242
     42 H2          0.9208   -2.6250   -4.2195 H         1 <0>         0.1241
     43 H3          2.0159   -2.2466   -2.8683 H         1 <0>         0.1233
     44 H4          0.1341   -2.1120   -1.3753 H         1 <0>         0.1387
     45 H5         -0.9507   -2.4744   -2.7391 H         1 <0>         0.1374
     46 H6         -2.0155   -3.0308   -0.5631 H         1 <0>         0.1251
     47 H7         -1.7743   -4.4876   -1.5578 H         1 <0>         0.0625
     48 H8          1.1687   -5.5941    0.3335 H         1 <0>         0.1395
     49 H9          0.0970   -5.9941   -1.0308 H         1 <0>         0.0570
     50 H10         2.2287   -5.0339   -1.8438 H         1 <0>         0.1359
     51 H11         1.9506   -3.5743   -0.8638 H         1 <0>         0.1396
     52 H12        -2.1420   -4.3802    1.3426 H         1 <0>         0.1191
     53 H13        -1.7151   -5.9197    0.5576 H         1 <0>         0.0788
     54 H14        -2.7110   -7.2960    2.7328 H         1 <0>         0.0646
     55 H15        -2.8924   -6.3940    4.2565 H         1 <0>         0.0840
     56 H16        -3.0260   -5.5445    2.6981 H         1 <0>         0.0759
     57 H17         0.1522   -4.5707    5.0339 H         1 <0>         0.1266
     58 H18         1.5237   -5.3691    6.9139 H         1 <0>         0.1329
     59 H19         0.7964   -9.4130    5.7261 H         1 <0>         0.1311
     60 H20        -0.5829   -8.6140    3.8520 H         1 <0>         0.1263
     61 H21         2.3454   -7.2688    8.1749 H         1 <0>         0.4200
     62 H22         0.5703   -7.4364    9.4422 H         1 <0>         0.1320
     63 H23        -0.7128   -7.1733   11.5053 H         1 <0>         0.1456
     64 H24         0.2586  -11.1973   12.6458 H         1 <0>         0.1456
     65 H25         1.8853  -12.4613   10.6887 H         1 <0>         0.4220
     66 H26        -2.8837   -6.7533   15.0120 H         1 <0>         0.1061
     67 H27        -3.2230   -8.4990   14.9368 H         1 <0>         0.0634
     68 H28        -1.7639   -7.9111   15.7696 H         1 <0>         0.0637
     69 H29         4.5879   -8.3913    6.3676 H         1 <0>         0.1221
     70 H30         5.7813   -9.5263    4.5416 H         1 <0>         0.1264
     71 H31         4.9406  -11.6617    3.6558 H         1 <0>         0.1253
     72 H32         2.9032  -12.6763    4.5890 H         1 <0>         0.1274
     73 H33         1.6987  -11.5652    6.4226 H         1 <0>         0.1223
     74 H34         0.2007   -4.5496   -3.0096 H         1 <0>         0.4217
@<TRIPOS>BOND
     1    1    2 1
     2    1   41 1
     3    1   42 1
     4    1   43 1
     5    2    7 1
     6    2    3 1
     7    2   74 1
     8    3    4 1
     9    3   44 1
    10    3   45 1
    11    4    5 1
    12    4   46 1
    13    4   47 1
    14    5    6 1
    15    5    8 1
    16    6    7 1
    17    6   48 1
    18    6   49 1
    19    7   50 1
    20    7   51 1
    21    8    9 1
    22    8   52 1
    23    8   53 1
    24    9   10 2
    25    9   11 am
    26   11   12 1
    27   11   13 1
    28   12   54 1
    29   12   55 1
    30   12   56 1
    31   13   18 ar
    32   13   14 ar
    33   14   15 ar
    34   14   57 1
    35   15   16 ar
    36   15   58 1
    37   16   17 ar
    38   16   19 1
    39   17   18 ar
    40   17   59 1
    41   18   60 1
    42   19   20 1
    43   19   61 1
    44   20   21 2
    45   20   35 1
    46   21   29 1
    47   21   22 1
    48   22   27 ar
    49   22   23 ar
    50   23   24 ar
    51   23   62 1
    52   24   25 ar
    53   24   63 1
    54   25   26 ar
    55   25   31 1
    56   26   27 ar
    57   26   64 1
    58   27   28 1
    59   28   29 am
    60   28   65 1
    61   29   30 2
    62   31   32 2
    63   31   33 1
    64   33   34 1
    65   34   66 1
    66   34   67 1
    67   34   68 1
    68   35   40 ar
    69   35   36 ar
    70   36   37 ar
    71   36   69 1
    72   37   38 ar
    73   37   70 1
    74   38   39 ar
    75   38   71 1
    76   39   40 ar
    77   39   72 1
    78   40   73 1
@<TRIPOS>MOLECULE
CHEMBL106772
   54    58     0     0     0
SMALL
USER_CHARGES

@<TRIPOS>ATOM
      1 C1         -0.0332    1.3909    0.6137 C.3       1 <0>         0.0706
      2 N1         -0.0055   -0.0383    0.2928 N.am      1 <0>        -0.5067
      3 C2         -1.1828   -0.7081    0.0742 C.ar      1 <0>         0.4676
      4 C3         -1.1737   -2.0853   -0.2365 C.ar      1 <0>        -0.2820
      5 C4          0.0505   -2.7863   -0.3250 C.2       1 <0>         0.0337
      6 C5          1.2203   -2.1096   -0.1052 C.2       1 <0>        -0.1683
      7 C6          1.1757   -0.6801    0.2099 C.2       1 <0>         0.5583
      8 O1          2.2120   -0.0695    0.4024 O.2       1 <0>        -0.5048
      9 C7          2.5198   -2.8161   -0.1902 C.ar      1 <0>        -0.0083
     10 C8          3.0642   -3.4205    0.9436 C.ar      1 <0>        -0.0070
     11 C9          4.2758   -4.0779    0.8575 C.ar      1 <0>        -0.1065
     12 C10         4.9495   -4.1377   -0.3491 C.ar      1 <0>        -0.0881
     13 C11         4.4153   -3.5407   -1.4768 C.ar      1 <0>        -0.1064
     14 C12         3.2018   -2.8851   -1.4056 C.ar      1 <0>        -0.0070
     15 Cl1         2.5299   -2.1422   -2.8235 Cl        1 <0>        -0.0504
     16 Cl2         2.2209   -3.3456    2.4592 Cl        1 <0>        -0.0505
     17 C13        -2.3995   -2.7325   -0.4533 C.ar      1 <0>         0.2650
     18 N2         -3.5114   -2.0280   -0.3581 N.ar      1 <0>        -0.5679
     19 C14        -3.4819   -0.7327   -0.0637 C.ar      1 <0>         0.6097
     20 N3         -2.3501   -0.0788    0.1492 N.ar      1 <0>        -0.5987
     21 N4         -4.6753   -0.0428    0.0231 N.pl3     1 <0>        -0.6223
     22 C15        -5.8911   -0.7305   -0.0815 C.ar      1 <0>         0.0931
     23 C16        -6.0348   -1.9801    0.5071 C.ar      1 <0>        -0.0503
     24 C17        -7.2332   -2.6581    0.4040 C.ar      1 <0>        -0.1806
     25 C18        -8.2950   -2.0901   -0.2879 C.ar      1 <0>         0.2137
     26 C19        -8.1513   -0.8403   -0.8761 C.ar      1 <0>        -0.1813
     27 C20        -6.9545   -0.1603   -0.7689 C.ar      1 <0>        -0.0850
     28 N5         -9.5094   -2.7774   -0.3928 N.pl3     1 <0>        -0.6332
     29 C21        -9.7248   -4.0476    0.3183 C.3       1 <0>         0.0867
     30 C22       -11.0457   -3.9514    1.0903 C.3       1 <0>         0.0453
     31 O2        -12.0837   -3.5395    0.1978 O.3       1 <0>        -0.3791
     32 C23       -11.8867   -2.2424   -0.3702 C.3       1 <0>         0.0452
     33 C24       -10.6109   -2.2482   -1.2126 C.3       1 <0>         0.0859
     34 H1          0.9861    1.7527    0.7487 H         1 <0>         0.1000
     35 H2         -0.5077    1.9371   -0.2015 H         1 <0>         0.0797
     36 H3         -0.5986    1.5460    1.5326 H         1 <0>         0.0799
     37 H4          0.0629   -3.8399   -0.5620 H         1 <0>         0.1493
     38 H5          4.6983   -4.5460    1.7343 H         1 <0>         0.1435
     39 H6          5.8970   -4.6524   -0.4109 H         1 <0>         0.1451
     40 H7          4.9463   -3.5910   -2.4159 H         1 <0>         0.1435
     41 H8         -2.4324   -3.7850   -0.6934 H         1 <0>         0.1861
     42 H9         -4.6715    0.9180    0.1565 H         1 <0>         0.4240
     43 H10        -5.2091   -2.4218    1.0451 H         1 <0>         0.1286
     44 H11        -7.3447   -3.6302    0.8611 H         1 <0>         0.1261
     45 H12        -8.9770   -0.3985   -1.4142 H         1 <0>         0.1271
     46 H13        -6.8440    0.8133   -1.2231 H         1 <0>         0.1255
     47 H14        -9.7781   -4.8659   -0.3998 H         1 <0>         0.0714
     48 H15        -8.9045   -4.2222    1.0145 H         1 <0>         0.0930
     49 H16       -11.2930   -4.9259    1.5114 H         1 <0>         0.1055
     50 H17       -10.9455   -3.2217    1.8937 H         1 <0>         0.0559
     51 H18       -12.7391   -1.9874   -0.9999 H         1 <0>         0.1055
     52 H19       -11.7896   -1.5065    0.4279 H         1 <0>         0.0555
     53 H20       -10.3771   -1.2319   -1.5296 H         1 <0>         0.0930
     54 H21       -10.7549   -2.8822   -2.0874 H         1 <0>         0.0713
@<TRIPOS>BOND
     1    1    2 1
     2    1   34 1
     3    1   35 1
     4    1   36 1
     5    2    7 am
     6    2    3 1
     7    3   20 ar
     8    3    4 ar
     9    4    5 1
    10    4   17 ar
    11    5    6 2
    12    5   37 1
    13    6    7 1
    14    6    9 1
    15    7    8 2
    16    9   14 ar
    17    9   10 ar
    18   10   11 ar
    19   10   16 1
    20   11   12 ar
    21   11   38 1
    22   12   13 ar
    23   12   39 1
    24   13   14 ar
    25   13   40 1
    26   14   15 1
    27   17   18 ar
    28   17   41 1
    29   18   19 ar
    30   19   20 ar
    31   19   21 1
    32   21   22 1
    33   21   42 1
    34   22   27 ar
    35   22   23 ar
    36   23   24 ar
    37   23   43 1
    38   24   25 ar
    39   24   44 1
    40   25   26 ar
    41   25   28 1
    42   26   27 ar
    43   26   45 1
    44   27   46 1
    45   28   33 1
    46   28   29 1
    47   29   30 1
    48   29   47 1
    49   29   48 1
    50   30   31 1
    51   30   49 1
    52   30   50 1
    53   31   32 1
    54   32   33 1
    55   32   51 1
    56   32   52 1
    57   33   53 1
    58   33   54 1
@<TRIPOS>MOLECULE
CHEMBL370515
   51    54     0     0     0
SMALL
USER_CHARGES

@<TRIPOS>ATOM
      1 C1          0.6995    1.3992    0.5590 C.3       1 <0>        -0.0736
      2 C2          0.6208   -0.0971    0.3973 C.2       1 <0>         0.2575
      3 N1          0.2578   -0.7371   -0.7164 N.2       1 <0>        -0.5414
      4 C3          0.2964   -2.0370   -0.5201 C.2       1 <0>         0.3766
      5 O1          0.6921   -2.2540    0.7465 O.3       1 <0>        -0.0935
      6 N2          0.9015   -0.9725    1.3206 N.2       1 <0>        -0.3467
      7 C4         -0.0368   -3.0752   -1.5153 C.2       1 <0>        -0.1206
      8 C5         -0.4395   -2.8605   -2.8224 C.2       1 <0>         0.1529
      9 N3         -0.6486   -4.0487   -3.4105 N.pl3     1 <0>        -0.2317
     10 C6         -0.3861   -5.0544   -2.4983 C.2       1 <0>        -0.1083
     11 C7          0.0018   -4.4693   -1.3134 C.2       1 <0>        -0.0201
     12 C8          0.3903   -5.1827   -0.0441 C.3       1 <0>        -0.0313
     13 C9          1.8213   -4.7998    0.3387 C.3       1 <0>        -0.1549
     14 C10        -0.5643   -4.7781    1.0810 C.3       1 <0>        -0.1546
     15 C11        -0.5444   -6.4000   -2.9126 C.2       1 <0>         0.5394
     16 N4         -0.9357   -6.6522   -4.1504 N.2       1 <0>        -0.6221
     17 C12        -1.1846   -5.6722   -5.0172 C.2       1 <0>         0.3363
     18 N5         -1.0589   -4.4129   -4.7016 N.2       1 <0>        -0.3388
     19 N6         -0.2929   -7.4350   -2.0351 N.pl3     1 <0>        -0.6144
     20 C13        -0.3222   -8.7599   -2.4881 C.ar      1 <0>         0.0985
     21 C14        -0.1743   -9.0329   -3.8367 C.ar      1 <0>        -0.0416
     22 C15        -0.2041  -10.3554   -4.2851 C.ar      1 <0>        -0.1537
     23 C16        -0.3832  -11.3962   -3.3677 C.ar      1 <0>         0.1858
     24 C17        -0.5300  -11.1129   -2.0229 C.ar      1 <0>        -0.1742
     25 C18        -0.4945   -9.8022   -1.5802 C.ar      1 <0>         0.1354
     26 F1         -0.6326   -9.5323   -0.2637 F         1 <0>        -0.1191
     27 F2         -0.4132  -12.6772   -3.7959 F         1 <0>        -0.0990
     28 C19        -0.0475  -10.6537   -5.7220 C.2       1 <0>         0.5751
     29 O2         -0.0737  -11.8057   -6.1101 O.2       1 <0>        -0.4972
     30 N7          0.1246   -9.6492   -6.6039 N.am      1 <0>        -0.5938
     31 O3          0.2748   -9.9355   -7.9825 O.3       1 <0>        -0.1368
     32 C20         0.4489   -8.7771   -8.8011 C.3       1 <0>        -0.0033
     33 H1          1.6970    1.7423    0.2843 H         1 <0>         0.0974
     34 H2         -0.0388    1.8738   -0.0872 H         1 <0>         0.0979
     35 H3          0.4974    1.6636    1.5970 H         1 <0>         0.0919
     36 H4         -0.5651   -1.8958   -3.2914 H         1 <0>         0.2028
     37 H5          0.3319   -6.2599   -0.2003 H         1 <0>         0.0676
     38 H6          1.8797   -3.7226    0.4949 H         1 <0>         0.0753
     39 H7          2.1023   -5.3158    1.2568 H         1 <0>         0.0714
     40 H8          2.5014   -5.0880   -0.4628 H         1 <0>         0.0579
     41 H9         -1.5837   -5.0509    0.8083 H         1 <0>         0.0581
     42 H10        -0.2833   -5.2941    1.9991 H         1 <0>         0.0719
     43 H11        -0.5059   -3.7009    1.2372 H         1 <0>         0.0740
     44 H12        -1.5015   -5.9293   -6.0172 H         1 <0>         0.2267
     45 H13        -0.0958   -7.2448   -1.1046 H         1 <0>         0.4301
     46 H14        -0.0367   -8.2255   -4.5407 H         1 <0>         0.1819
     47 H15        -0.6686  -11.9169   -1.3151 H         1 <0>         0.1684
     48 H16         0.1454   -8.7302   -6.2943 H         1 <0>         0.4067
     49 H17         0.5568   -9.0809   -9.8423 H         1 <0>         0.1168
     50 H18        -0.4203   -8.1271   -8.7004 H         1 <0>         0.0590
     51 H19         1.3430   -8.2398   -8.4848 H         1 <0>         0.0575
@<TRIPOS>BOND
     1    1    2 1
     2    1   33 1
     3    1   34 1
     4    1   35 1
     5    2    6 2
     6    2    3 1
     7    3    4 2
     8    4    5 1
     9    4    7 1
    10    5    6 1
    11    7   11 1
    12    7    8 2
    13    8    9 1
    14    8   36 1
    15    9   18 1
    16    9   10 1
    17   10   11 2
    18   10   15 1
    19   11   12 1
    20   12   13 1
    21   12   14 1
    22   12   37 1
    23   13   38 1
    24   13   39 1
    25   13   40 1
    26   14   41 1
    27   14   42 1
    28   14   43 1
    29   15   16 2
    30   15   19 1
    31   16   17 1
    32   17   18 2
    33   17   44 1
    34   19   20 1
    35   19   45 1
    36   20   25 ar
    37   20   21 ar
    38   21   22 ar
    39   21   46 1
    40   22   23 ar
    41   22   28 1
    42   23   24 ar
    43   23   27 1
    44   24   25 ar
    45   24   47 1
    46   25   26 1
    47   28   29 2
    48   28   30 am
    49   30   31 1
    50   30   48 1
    51   31   32 1
    52   32   49 1
    53   32   50 1
    54   32   51 1
@<TRIPOS>MOLECULE
CHEMBL106295
   54    57     0     0     0
SMALL
USER_CHARGES

@<TRIPOS>ATOM
      1 C1         -0.0178    1.4608    0.0101 C.3       1 <0>         0.0607
      2 N1          0.0021   -0.0041    0.0020 N.am      1 <0>        -0.5209
      3 C2         -1.1832   -0.7026    0.0039 C.ar      1 <0>         0.2720
      4 C3         -2.4056   -0.0412    0.0132 C.ar      1 <0>        -0.2977
      5 C4         -3.5734   -0.7908    0.0143 C.ar      1 <0>         0.4475
      6 N2         -3.5407   -2.1192    0.0065 N.ar      1 <0>        -0.5577
      7 C5         -2.4109   -2.7924   -0.0026 C.ar      1 <0>         0.2356
      8 C6         -1.1855   -2.1147   -0.0043 C.ar      1 <0>        -0.2410
      9 C7          0.0397   -2.8227   -0.0135 C.2       1 <0>         0.0313
     10 C8          1.2142   -2.1207   -0.0144 C.2       1 <0>        -0.1732
     11 C9          1.1810   -0.6564   -0.0127 C.2       1 <0>         0.5535
     12 O1          2.2233   -0.0259   -0.0189 O.2       1 <0>        -0.5154
     13 C10         2.5110   -2.8371   -0.0239 C.ar      1 <0>        -0.0061
     14 C11         3.1266   -3.1880    1.1783 C.ar      1 <0>        -0.0079
     15 C12         4.3355   -3.8557    1.1624 C.ar      1 <0>        -0.1070
     16 C13         4.9362   -4.1763   -0.0417 C.ar      1 <0>        -0.0897
     17 C14         4.3313   -3.8315   -1.2369 C.ar      1 <0>        -0.1069
     18 C15         3.1193   -3.1691   -1.2351 C.ar      1 <0>        -0.0079
     19 Cl1         2.3582   -2.7435   -2.7362 Cl        1 <0>        -0.0511
     20 Cl2         2.3749   -2.7855    2.6904 Cl        1 <0>        -0.0508
     21 N3         -4.7988   -0.1407    0.0241 N.pl3     1 <0>        -0.7126
     22 C16        -4.8513    1.3233    0.0332 C.3       1 <0>         0.1247
     23 C17        -6.3112    1.7812    0.0430 C.3       1 <0>        -0.1290
     24 C18        -6.3660    3.3102    0.0525 C.3       1 <0>         0.0587
     25 N4         -7.7676    3.7499    0.0619 N.3       1 <0>        -0.5372
     26 C19        -8.4410    3.3902   -1.1945 C.3       1 <0>         0.0133
     27 C20        -9.9107    3.8123   -1.1185 C.3       1 <0>         0.0622
     28 O2         -9.9853    5.2144   -0.8464 O.3       1 <0>        -0.3849
     29 C21        -9.3400    5.5998    0.3703 C.3       1 <0>         0.0624
     30 C22        -7.8646    5.1958    0.3094 C.3       1 <0>         0.0172
     31 H1          1.0048    1.8381    0.0023 H         1 <0>         0.1037
     32 H2         -0.5450    1.8219   -0.8730 H         1 <0>         0.0767
     33 H3         -0.5280    1.8123    0.9069 H         1 <0>         0.0771
     34 H4         -2.4459    1.0381    0.0200 H         1 <0>         0.1412
     35 H5         -2.4284   -3.8722   -0.0087 H         1 <0>         0.1736
     36 H6          0.0476   -3.9026   -0.0194 H         1 <0>         0.1447
     37 H7          4.8130   -4.1278    2.0921 H         1 <0>         0.1429
     38 H8          5.8819   -4.6979   -0.0486 H         1 <0>         0.1446
     39 H9          4.8055   -4.0847   -2.1736 H         1 <0>         0.1428
     40 H10        -5.6209   -0.6556    0.0249 H         1 <0>         0.4102
     41 H11        -4.3466    1.6994    0.9231 H         1 <0>         0.0693
     42 H12        -4.3551    1.7102   -0.8568 H         1 <0>         0.0669
     43 H13        -6.8159    1.4051   -0.8469 H         1 <0>         0.0730
     44 H14        -6.8074    1.3943    0.9330 H         1 <0>         0.0829
     45 H15        -5.8613    3.6863    0.9424 H         1 <0>         0.0812
     46 H16        -5.8698    3.6971   -0.8375 H         1 <0>         0.0401
     47 H17        -7.9576    3.9027   -2.0262 H         1 <0>         0.0444
     48 H18        -8.3792    2.3124   -1.3450 H         1 <0>         0.0888
     49 H19       -10.4001    3.5995   -2.0689 H         1 <0>         0.0992
     50 H20       -10.4073    3.2598   -0.3209 H         1 <0>         0.0608
     51 H21        -9.4167    6.6797    0.4967 H         1 <0>         0.0999
     52 H22        -9.8200    5.0993    1.2113 H         1 <0>         0.0611
     53 H23        -7.3820    5.4360    1.2568 H         1 <0>         0.0881
     54 H24        -7.3720    5.7372   -0.4983 H         1 <0>         0.0447
@<TRIPOS>BOND
     1    1    2 1
     2    1   31 1
     3    1   32 1
     4    1   33 1
     5    2   11 am
     6    2    3 1
     7    3    8 ar
     8    3    4 ar
     9    4    5 ar
    10    4   34 1
    11    5    6 ar
    12    5   21 1
    13    6    7 ar
    14    7    8 ar
    15    7   35 1
    16    8    9 1
    17    9   10 2
    18    9   36 1
    19   10   11 1
    20   10   13 1
    21   11   12 2
    22   13   18 ar
    23   13   14 ar
    24   14   15 ar
    25   14   20 1
    26   15   16 ar
    27   15   37 1
    28   16   17 ar
    29   16   38 1
    30   17   18 ar
    31   17   39 1
    32   18   19 1
    33   21   22 1
    34   21   40 1
    35   22   23 1
    36   22   41 1
    37   22   42 1
    38   23   24 1
    39   23   43 1
    40   23   44 1
    41   24   25 1
    42   24   45 1
    43   24   46 1
    44   25   30 1
    45   25   26 1
    46   26   27 1
    47   26   47 1
    48   26   48 1
    49   27   28 1
    50   27   49 1
    51   27   50 1
    52   28   29 1
    53   29   30 1
    54   29   51 1
    55   29   52 1
    56   30   53 1
    57   30   54 1
@<TRIPOS>MOLECULE
CHEMBL106295__1
   55    58     0     0     0
SMALL
USER_CHARGES

@<TRIPOS>ATOM
      1 C1         -0.0178    1.4608    0.0101 C.3       1 <0>         0.0612
      2 N1          0.0021   -0.0041    0.0020 N.am      1 <0>        -0.5217
      3 C2         -1.1832   -0.7026    0.0039 C.ar      1 <0>         0.2707
      4 C3         -2.4056   -0.0412    0.0132 C.ar      1 <0>        -0.2944
      5 C4         -3.5734   -0.7908    0.0143 C.ar      1 <0>         0.4399
      6 N2         -3.5407   -2.1192    0.0065 N.ar      1 <0>        -0.5551
      7 C5         -2.4109   -2.7924   -0.0026 C.ar      1 <0>         0.2355
      8 C6         -1.1855   -2.1147   -0.0043 C.ar      1 <0>        -0.2269
      9 C7          0.0397   -2.8227   -0.0135 C.2       1 <0>         0.0204
     10 C8          1.2142   -2.1207   -0.0144 C.2       1 <0>        -0.1559
     11 C9          1.1810   -0.6564   -0.0127 C.2       1 <0>         0.5511
     12 O1          2.2233   -0.0259   -0.0189 O.2       1 <0>        -0.5055
     13 C10         2.5110   -2.8371   -0.0239 C.ar      1 <0>        -0.0152
     14 C11         3.1266   -3.1880    1.1783 C.ar      1 <0>        -0.0069
     15 C12         4.3355   -3.8557    1.1624 C.ar      1 <0>        -0.1054
     16 C13         4.9362   -4.1763   -0.0417 C.ar      1 <0>        -0.0854
     17 C14         4.3313   -3.8315   -1.2369 C.ar      1 <0>        -0.1053
     18 C15         3.1193   -3.1691   -1.2351 C.ar      1 <0>        -0.0068
     19 Cl1         2.3582   -2.7435   -2.7362 Cl        1 <0>        -0.0518
     20 Cl2         2.3749   -2.7855    2.6904 Cl        1 <0>        -0.0517
     21 N3         -4.7988   -0.1407    0.0241 N.pl3     1 <0>        -0.7232
     22 C16        -4.8513    1.3233    0.0332 C.3       1 <0>         0.1317
     23 C17        -6.3112    1.7812    0.0430 C.3       1 <0>        -0.1637
     24 C18        -6.3660    3.3102    0.0525 C.3       1 <0>        -0.0052
     25 N4         -7.7676    3.7499    0.0619 N.4       1 <0>        -0.3851
     26 C19        -8.4161    3.3465   -1.1935 C.3       1 <0>        -0.0492
     27 C20        -9.8763    3.8055   -1.1812 C.3       1 <0>         0.0360
     28 O2         -9.9234    5.2232   -0.9975 O.3       1 <0>        -0.3559
     29 C21        -9.2828    5.6681    0.2015 C.3       1 <0>         0.0353
     30 C22        -7.8215    5.2125    0.1917 C.3       1 <0>        -0.0434
     31 H1          1.0048    1.8381    0.0023 H         1 <0>         0.1060
     32 H2         -0.5450    1.8219   -0.8730 H         1 <0>         0.0754
     33 H3         -0.5280    1.8123    0.9069 H         1 <0>         0.0756
     34 H4         -2.4459    1.0381    0.0200 H         1 <0>         0.1389
     35 H5         -2.4284   -3.8722   -0.0087 H         1 <0>         0.1773
     36 H6          0.0476   -3.9026   -0.0194 H         1 <0>         0.1484
     37 H7          4.8130   -4.1278    2.0921 H         1 <0>         0.1448
     38 H8          5.8819   -4.6979   -0.0486 H         1 <0>         0.1470
     39 H9          4.8055   -4.0847   -2.1736 H         1 <0>         0.1448
     40 H10        -5.6209   -0.6556    0.0249 H         1 <0>         0.4105
     41 H11        -4.3466    1.6994    0.9231 H         1 <0>         0.0765
     42 H12        -4.3551    1.7102   -0.8568 H         1 <0>         0.0762
     43 H13        -6.8159    1.4051   -0.8469 H         1 <0>         0.0971
     44 H14        -6.8074    1.3943    0.9330 H         1 <0>         0.0980
     45 H15        -5.8613    3.6863    0.9424 H         1 <0>         0.1380
     46 H16        -5.8698    3.6971   -0.8375 H         1 <0>         0.1359
     47 H17        -7.8975    3.8063   -2.0347 H         1 <0>         0.1406
     48 H18        -8.3768    2.2615   -1.2908 H         1 <0>         0.1432
     49 H19       -10.3476    3.5454   -2.1290 H         1 <0>         0.1427
     50 H20       -10.4052    3.3148   -0.3641 H         1 <0>         0.0818
     51 H21        -9.3246    6.7560    0.2544 H         1 <0>         0.1432
     52 H22        -9.7914    5.2411    1.0659 H         1 <0>         0.0819
     53 H23        -7.3408    5.5128    1.1228 H         1 <0>         0.1441
     54 H24        -7.3031    5.6716   -0.6500 H         1 <0>         0.1402
     55 H25        -8.2483    3.3250    0.8406 H         1 <0>         0.4241
@<TRIPOS>BOND
     1    1    2 1
     2    1   31 1
     3    1   32 1
     4    1   33 1
     5    2   11 am
     6    2    3 1
     7    3    8 ar
     8    3    4 ar
     9    4    5 ar
    10    4   34 1
    11    5    6 ar
    12    5   21 1
    13    6    7 ar
    14    7    8 ar
    15    7   35 1
    16    8    9 1
    17    9   10 2
    18    9   36 1
    19   10   11 1
    20   10   13 1
    21   11   12 2
    22   13   18 ar
    23   13   14 ar
    24   14   15 ar
    25   14   20 1
    26   15   16 ar
    27   15   37 1
    28   16   17 ar
    29   16   38 1
    30   17   18 ar
    31   17   39 1
    32   18   19 1
    33   21   22 1
    34   21   40 1
    35   22   23 1
    36   22   41 1
    37   22   42 1
    38   23   24 1
    39   23   43 1
    40   23   44 1
    41   24   25 1
    42   24   45 1
    43   24   46 1
    44   25   30 1
    45   25   26 1
    46   25   55 1
    47   26   27 1
    48   26   47 1
    49   26   48 1
    50   27   28 1
    51   27   49 1
    52   27   50 1
    53   28   29 1
    54   29   30 1
    55   29   51 1
    56   29   52 1
    57   30   53 1
    58   30   54 1
@<TRIPOS>MOLECULE
CHEMBL56983
   70    73     0     0     0
SMALL
USER_CHARGES

@<TRIPOS>ATOM
      1 C1         -0.0045    1.0045    0.1406 C.3       1 <0>        -0.1880
      2 C2         -0.1492   -0.5163    0.0555 C.3       1 <0>        -0.0166
      3 N1          0.4208   -0.9923   -1.2120 N.4       1 <0>        -0.3863
      4 C3          1.8703   -0.7540   -1.2172 C.3       1 <0>        -0.0149
      5 C4          2.4417   -1.1157   -2.5896 C.3       1 <0>        -0.1886
      6 C5          0.1604   -2.4308   -1.3563 C.3       1 <0>        -0.0141
      7 C6         -1.3465   -2.6669   -1.4761 C.3       1 <0>        -0.1435
      8 C7         -1.6176   -4.1651   -1.6264 C.3       1 <0>        -0.1331
      9 C8         -3.1245   -4.4012   -1.7462 C.3       1 <0>         0.1388
     10 N2         -3.3842   -5.8358   -1.8902 N.pl3     1 <0>        -0.6981
     11 C9         -4.6819   -6.2940   -2.0159 C.ar      1 <0>         0.5916
     12 N3         -5.6753   -5.4076   -2.0082 N.ar      1 <0>        -0.5721
     13 C10        -6.9325   -5.7845   -2.1249 C.ar      1 <0>         0.2668
     14 C11        -7.2117   -7.1554   -2.2593 C.ar      1 <0>        -0.2892
     15 C12        -8.5251   -7.6362   -2.3891 C.ar      1 <0>         0.0493
     16 C13        -8.7064   -9.0040   -2.5170 C.ar      1 <0>        -0.1590
     17 C14        -7.5817   -9.8564   -2.5128 C.ar      1 <0>         0.4858
     18 N4         -6.3592   -9.3813   -2.3893 N.ar      1 <0>        -0.4757
     19 C15        -6.1287   -8.0731   -2.2635 C.ar      1 <0>         0.4314
     20 N5         -4.8851   -7.5914   -2.1440 N.ar      1 <0>        -0.5592
     21 N6         -7.7676  -11.2252   -2.6411 N.am      1 <0>        -0.6555
     22 C16        -6.7040  -12.0529   -2.6389 C.2       1 <0>         0.6919
     23 O1         -5.5816  -11.6000   -2.5246 O.2       1 <0>        -0.4902
     24 N7         -6.8846  -13.3827   -2.7636 N.am      1 <0>        -0.6816
     25 C17        -5.7925  -14.2506   -2.6527 C.ar      1 <0>         0.1606
     26 C18        -5.7400  -15.4049   -3.4230 C.ar      1 <0>        -0.1438
     27 C19        -4.6605  -16.2592   -3.3115 C.ar      1 <0>        -0.0995
     28 C20        -3.6327  -15.9661   -2.4340 C.ar      1 <0>        -0.1331
     29 C21        -3.6823  -14.8178   -1.6653 C.ar      1 <0>        -0.0998
     30 C22        -4.7562  -13.9565   -1.7763 C.ar      1 <0>        -0.1179
     31 C23       -10.0707   -9.5673   -2.6567 C.ar      1 <0>        -0.0460
     32 C24       -10.7983   -9.9294   -1.5231 C.ar      1 <0>        -0.0129
     33 C25       -12.0691  -10.4532   -1.6599 C.ar      1 <0>        -0.1033
     34 C26       -12.6201  -10.6193   -2.9176 C.ar      1 <0>        -0.0806
     35 C27       -11.9038  -10.2621   -4.0456 C.ar      1 <0>        -0.1034
     36 C28       -10.6343   -9.7319   -3.9220 C.ar      1 <0>        -0.0133
     37 Cl1        -9.7396   -9.2775   -5.3386 Cl        1 <0>        -0.0429
     38 Cl2       -10.1080   -9.7228    0.0563 Cl        1 <0>        -0.0430
     39 H1          1.0525    1.2669    0.1865 H         1 <0>         0.0802
     40 H2         -0.4544    1.4621   -0.7405 H         1 <0>         0.0798
     41 H3         -0.5083    1.3679    1.0362 H         1 <0>         0.1061
     42 H4          0.3804   -0.9787    0.8884 H         1 <0>         0.1292
     43 H5         -1.2047   -0.7840    0.1026 H         1 <0>         0.1324
     44 H6          2.0664    0.2975   -1.0076 H         1 <0>         0.1320
     45 H7          2.3427   -1.3711   -0.4528 H         1 <0>         0.1290
     46 H8          3.4990   -0.8531   -2.6237 H         1 <0>         0.1061
     47 H9          2.3275   -2.1863   -2.7600 H         1 <0>         0.0804
     48 H10         1.9055   -0.5655   -3.3629 H         1 <0>         0.0798
     49 H11         0.6587   -2.8021   -2.2518 H         1 <0>         0.1336
     50 H12         0.5426   -2.9586   -0.4825 H         1 <0>         0.1308
     51 H13        -1.8448   -2.2955   -0.5806 H         1 <0>         0.0913
     52 H14        -1.7286   -2.1390   -2.3499 H         1 <0>         0.0915
     53 H15        -1.1193   -4.5365   -2.5219 H         1 <0>         0.0831
     54 H16        -1.2355   -4.6930   -0.7527 H         1 <0>         0.0828
     55 H17        -3.6228   -4.0298   -0.8507 H         1 <0>         0.0713
     56 H18        -3.5067   -3.8733   -2.6200 H         1 <0>         0.0717
     57 H19        -2.6452   -6.4641   -1.8973 H         1 <0>         0.4176
     58 H20        -7.7303   -5.0566   -2.1170 H         1 <0>         0.1817
     59 H21        -9.3677   -6.9606   -2.3887 H         1 <0>         0.1540
     60 H22        -8.6632  -11.5866   -2.7324 H         1 <0>         0.4158
     61 H23        -7.7716  -13.7381   -2.9302 H         1 <0>         0.4072
     62 H24        -6.5426  -15.6344   -4.1082 H         1 <0>         0.1256
     63 H25        -4.6193  -17.1572   -3.9100 H         1 <0>         0.1278
     64 H26        -2.7897  -16.6358   -2.3487 H         1 <0>         0.1243
     65 H27        -2.8781  -14.5919   -0.9806 H         1 <0>         0.1255
     66 H28        -4.7921  -13.0573   -1.1791 H         1 <0>         0.1337
     67 H29       -12.6335  -10.7340   -0.7829 H         1 <0>         0.1470
     68 H30       -13.6138  -11.0299   -3.0194 H         1 <0>         0.1488
     69 H31       -12.3394  -10.3946   -5.0250 H         1 <0>         0.1470
     70 H32        -0.0046   -0.4948   -1.9799 H         1 <0>         0.4222
@<TRIPOS>BOND
     1    1    2 1
     2    1   39 1
     3    1   40 1
     4    1   41 1
     5    2    3 1
     6    2   42 1
     7    2   43 1
     8    3    4 1
     9    3    6 1
    10    3   70 1
    11    4    5 1
    12    4   44 1
    13    4   45 1
    14    5   46 1
    15    5   47 1
    16    5   48 1
    17    6    7 1
    18    6   49 1
    19    6   50 1
    20    7    8 1
    21    7   51 1
    22    7   52 1
    23    8    9 1
    24    8   53 1
    25    8   54 1
    26    9   10 1
    27    9   55 1
    28    9   56 1
    29   10   11 1
    30   10   57 1
    31   11   20 ar
    32   11   12 ar
    33   12   13 ar
    34   13   14 ar
    35   13   58 1
    36   14   19 ar
    37   14   15 ar
    38   15   16 ar
    39   15   59 1
    40   16   17 ar
    41   16   31 1
    42   17   18 ar
    43   17   21 1
    44   18   19 ar
    45   19   20 ar
    46   21   22 am
    47   21   60 1
    48   22   23 2
    49   22   24 am
    50   24   25 1
    51   24   61 1
    52   25   30 ar
    53   25   26 ar
    54   26   27 ar
    55   26   62 1
    56   27   28 ar
    57   27   63 1
    58   28   29 ar
    59   28   64 1
    60   29   30 ar
    61   29   65 1
    62   30   66 1
    63   31   36 ar
    64   31   32 ar
    65   32   33 ar
    66   32   38 1
    67   33   34 ar
    68   33   67 1
    69   34   35 ar
    70   34   68 1
    71   35   36 ar
    72   35   69 1
    73   36   37 1
@<TRIPOS>MOLECULE
CHEMBL425247
   73    79     0     0     0
SMALL
USER_CHARGES

@<TRIPOS>ATOM
      1 C1         -0.0474    1.3232    0.0101 C.ar      1 <0>        -0.1243
      2 C2          1.1431    2.0253   -0.0135 C.ar      1 <0>        -0.1231
      3 C3          2.3465    1.3451   -0.0285 C.ar      1 <0>        -0.0863
      4 C4          2.3593   -0.0371   -0.0195 C.ar      1 <0>        -0.0711
      5 C5          1.1688   -0.7392    0.0050 C.ar      1 <0>        -0.0882
      6 C6         -0.0346   -0.0591    0.0186 C.ar      1 <0>        -0.1265
      7 C7          3.6711   -0.7786   -0.0368 C.3       1 <0>         0.0903
      8 O1          4.1087   -1.0040    1.3047 O.3       1 <0>        -0.2566
      9 C8          5.2840   -1.6654    1.4672 C.ar      1 <0>         0.2185
     10 C9          6.0041   -2.0837    0.3653 C.ar      1 <0>        -0.2593
     11 C10         7.2053   -2.7598    0.5272 C.ar      1 <0>        -0.0185
     12 C11         7.6984   -3.0249    1.7847 C.ar      1 <0>        -0.1855
     13 C12         6.9901   -2.6130    2.9116 C.ar      1 <0>         0.1690
     14 C13         5.7761   -1.9225    2.7531 C.ar      1 <0>        -0.1739
     15 C14         5.2902   -1.6258    4.1057 C.2       1 <0>         0.1738
     16 N1          6.1679   -2.1079    4.9551 N.2       1 <0>        -0.2341
     17 N2          7.2133   -2.7249    4.2608 N.pl3     1 <0>        -0.4908
     18 H1          7.9813   -3.1546    4.6687 H         1 <0>         0.4495
     19 C15         4.0426   -0.9148    4.4487 C.2       1 <0>         0.3587
     20 N3          3.6138   -0.6454    5.7208 N.pl3     1 <0>        -0.5848
     21 H2          4.0678   -0.8842    6.5441 H         1 <0>         0.4278
     22 C16         2.4115    0.0313    5.6120 C.ar      1 <0>         0.0179
     23 C17         1.5178    0.5553    6.5355 C.ar      1 <0>        -0.0634
     24 C18         0.3746    1.1913    6.1023 C.ar      1 <0>        -0.1588
     25 C19         0.1080    1.3122    4.7396 C.ar      1 <0>         0.1952
     26 C20         0.9872    0.7956    3.8071 C.ar      1 <0>        -0.1401
     27 C21         2.1513    0.1489    4.2354 C.ar      1 <0>         0.0977
     28 N4          3.1809   -0.4410    3.5806 N.2       1 <0>        -0.4270
     29 N5         -1.0568    1.9599    4.3134 N.pl3     1 <0>        -0.6344
     30 C22        -1.2972    2.2045    2.8847 C.3       1 <0>         0.1205
     31 C23        -2.6689    1.6341    2.5108 C.3       1 <0>        -0.1601
     32 C24        -3.7331    2.2263    3.4378 C.3       1 <0>         0.0278
     33 C25        -3.4257    1.8356    4.8852 C.3       1 <0>        -0.1591
     34 C26        -2.0654    2.4028    5.2855 C.3       1 <0>         0.1286
     35 N6         -5.0544    1.7068    3.0607 N.4       1 <0>        -0.3808
     36 C27        -5.3449    2.0759    1.6700 C.3       1 <0>        -0.0121
     37 C28        -6.6840    1.4686    1.2463 C.3       1 <0>        -0.1452
     38 C29        -7.7918    2.0014    2.1596 C.3       1 <0>        -0.1391
     39 C30        -7.4412    1.6758    3.6143 C.3       1 <0>        -0.1453
     40 C31        -6.0741    2.2754    3.9503 C.3       1 <0>        -0.0115
     41 H3         -0.9875    1.8546    0.0263 H         1 <0>         0.1149
     42 H4          1.1331    3.1052   -0.0206 H         1 <0>         0.1230
     43 H5          3.2766    1.8937   -0.0477 H         1 <0>         0.1239
     44 H6          1.1788   -1.8192    0.0117 H         1 <0>         0.1224
     45 H7         -0.9647   -0.6076    0.0374 H         1 <0>         0.1182
     46 H8          3.5409   -1.7356   -0.5421 H         1 <0>         0.0720
     47 H9          4.4164   -0.1861   -0.5674 H         1 <0>         0.0726
     48 H10         5.6301   -1.8838   -0.6280 H         1 <0>         0.1353
     49 H11         7.7589   -3.0816   -0.3425 H         1 <0>         0.1371
     50 H12         8.6340   -3.5525    1.8978 H         1 <0>         0.1328
     51 H13         1.7180    0.4644    7.5929 H         1 <0>         0.1280
     52 H14        -0.3192    1.5981    6.8231 H         1 <0>         0.1311
     53 H15         0.7770    0.8914    2.7521 H         1 <0>         0.1317
     54 H16        -1.2820    3.2769    2.6900 H         1 <0>         0.0708
     55 H17        -0.5238    1.7129    2.2946 H         1 <0>         0.1117
     56 H18        -2.9014    1.8931    1.4779 H         1 <0>         0.0964
     57 H19        -2.6541    0.5497    2.6200 H         1 <0>         0.0926
     58 H20        -3.7305    3.3124    3.3464 H         1 <0>         0.1367
     59 H21        -4.1968    2.2380    5.5422 H         1 <0>         0.0973
     60 H22        -3.4037    0.7493    4.9720 H         1 <0>         0.0915
     61 H23        -1.7987    2.0420    6.2789 H         1 <0>         0.1023
     62 H24        -2.1142    3.4917    5.2910 H         1 <0>         0.0718
     63 H25        -5.3959    3.1614    1.5857 H         1 <0>         0.1281
     64 H26        -4.5540    1.6987    1.0217 H         1 <0>         0.1314
     65 H27        -6.8988    1.7452    0.2141 H         1 <0>         0.1117
     66 H28        -6.6341    0.3829    1.3300 H         1 <0>         0.0868
     67 H29        -7.8764    3.0813    2.0380 H         1 <0>         0.0815
     68 H30        -8.7385    1.5287    1.8982 H         1 <0>         0.0937
     69 H31        -8.1972    2.1005    4.2747 H         1 <0>         0.1115
     70 H32        -7.4070    0.5944    3.7471 H         1 <0>         0.0867
     71 H33        -5.8215    2.0455    4.9854 H         1 <0>         0.1312
     72 H34        -6.1095    3.3567    3.8174 H         1 <0>         0.1279
     73 H35        -5.0567    0.7015    3.1473 H         1 <0>         0.4198
@<TRIPOS>BOND
     1    1    6 ar
     2    1    2 ar
     3    1   41 1
     4    2    3 ar
     5    2   42 1
     6    3    4 ar
     7    3   43 1
     8    4    5 ar
     9    4    7 1
    10    5    6 ar
    11    5   44 1
    12    6   45 1
    13    7    8 1
    14    7   46 1
    15    7   47 1
    16    8    9 1
    17    9   14 ar
    18    9   10 ar
    19   10   11 ar
    20   10   48 1
    21   11   12 ar
    22   11   49 1
    23   12   13 ar
    24   12   50 1
    25   13   17 1
    26   13   14 ar
    27   14   15 1
    28   15   16 2
    29   15   19 1
    30   16   17 1
    31   17   18 1
    32   19   28 2
    33   19   20 1
    34   20   21 1
    35   20   22 1
    36   22   27 ar
    37   22   23 ar
    38   23   24 ar
    39   23   51 1
    40   24   25 ar
    41   24   52 1
    42   25   26 ar
    43   25   29 1
    44   26   27 ar
    45   26   53 1
    46   27   28 1
    47   29   34 1
    48   29   30 1
    49   30   31 1
    50   30   54 1
    51   30   55 1
    52   31   32 1
    53   31   56 1
    54   31   57 1
    55   32   33 1
    56   32   35 1
    57   32   58 1
    58   33   34 1
    59   33   59 1
    60   33   60 1
    61   34   61 1
    62   34   62 1
    63   35   40 1
    64   35   36 1
    65   35   73 1
    66   36   37 1
    67   36   63 1
    68   36   64 1
    69   37   38 1
    70   37   65 1
    71   37   66 1
    72   38   39 1
    73   38   67 1
    74   38   68 1
    75   39   40 1
    76   39   69 1
    77   39   70 1
    78   40   71 1
    79   40   72 1
@<TRIPOS>MOLECULE
CHEMBL425247__1
   73    79     0     0     0
SMALL
USER_CHARGES

@<TRIPOS>ATOM
      1 C1         -0.0501    1.3181    0.0101 C.ar      1 <0>        -0.1138
      2 C2          1.1307    2.0365   -0.0102 C.ar      1 <0>        -0.1251
      3 C3          2.3433    1.3729   -0.0255 C.ar      1 <0>        -0.0907
      4 C4          2.3750   -0.0090   -0.0199 C.ar      1 <0>        -0.0796
      5 C5          1.1942   -0.7274    0.0013 C.ar      1 <0>        -0.0900
      6 C6         -0.0184   -0.0638    0.0151 C.ar      1 <0>        -0.1241
      7 C7          3.6969   -0.7325   -0.0375 C.3       1 <0>         0.0930
      8 O1          4.1359   -0.9552    1.3040 O.3       1 <0>        -0.2576
      9 C8          5.3199   -1.6009    1.4662 C.ar      1 <0>         0.2201
     10 C9          6.0470   -2.0064    0.3642 C.ar      1 <0>        -0.2603
     11 C10         7.2575   -2.6660    0.5259 C.ar      1 <0>        -0.0174
     12 C11         7.7530   -2.9267    1.7833 C.ar      1 <0>        -0.1882
     13 C12         7.0378   -2.5275    2.9104 C.ar      1 <0>         0.1695
     14 C13         5.8139   -1.8545    2.7521 C.ar      1 <0>        -0.1763
     15 C14         5.3220   -1.5687    4.1048 C.2       1 <0>         0.1801
     16 N1          6.2052   -2.0409    4.9541 N.2       1 <0>        -0.2412
     17 N2          7.2613   -2.6390    4.2595 N.pl3     1 <0>        -0.4930
     18 H1          8.0351   -3.0583    4.6673 H         1 <0>         0.4483
     19 C15         4.0641   -0.8761    4.4482 C.2       1 <0>         0.3353
     20 N3          3.1946   -0.4173    3.5809 N.2       1 <0>        -0.4032
     21 C16         2.1577    0.1604    4.2369 C.ar      1 <0>         0.0109
     22 C17         0.9853    0.7929    3.8090 C.ar      1 <0>        -0.0001
     23 C18         0.1049    1.2904    4.7258 C.ar      1 <0>        -0.1905
     24 C19         0.3616    1.1755    6.0911 C.ar      1 <0>         0.2306
     25 C20         1.5166    0.5527    6.5352 C.ar      1 <0>        -0.2024
     26 C21         2.4193    0.0425    5.6136 C.ar      1 <0>         0.1054
     27 N4          3.6264   -0.6210    5.7220 N.pl3     1 <0>        -0.5896
     28 N5         -0.5505    1.6915    7.0164 N.pl3     1 <0>        -0.6326
     29 C22        -0.3592    1.4747    8.4569 C.3       1 <0>         0.1260
     30 C23        -0.3904    2.8311    9.1681 C.3       1 <0>        -0.1595
     31 C24        -1.6866    3.5612    8.8091 C.3       1 <0>         0.0277
     32 C25        -1.7347    3.8062    7.2992 C.3       1 <0>        -0.1593
     33 C26        -1.7155    2.4660    6.5672 C.3       1 <0>         0.1272
     34 N6         -1.7352    4.8482    9.5156 N.4       1 <0>        -0.3809
     35 C27        -1.6817    4.6124   10.9633 C.3       1 <0>        -0.0119
     36 C28        -1.6503    5.9524   11.7015 C.3       1 <0>        -0.1453
     37 C29        -2.9133    6.7476   11.3586 C.3       1 <0>        -0.1392
     38 C30        -2.9973    6.9235    9.8396 C.3       1 <0>        -0.1453
     39 C31        -2.9788    5.5475    9.1705 C.3       1 <0>        -0.0116
     40 H2         -0.9974    1.8366    0.0265 H         1 <0>         0.1207
     41 H3          1.1059    3.1162   -0.0146 H         1 <0>         0.1215
     42 H4          3.2658    1.9342   -0.0421 H         1 <0>         0.1211
     43 H5          1.2189   -1.8071    0.0053 H         1 <0>         0.1217
     44 H6         -0.9410   -0.6251    0.0314 H         1 <0>         0.1225
     45 H7          3.5804   -1.6899   -0.5454 H         1 <0>         0.0718
     46 H8          4.4346   -0.1284   -0.5657 H         1 <0>         0.0715
     47 H9          5.6713   -1.8094   -0.6290 H         1 <0>         0.1359
     48 H10         7.8162   -2.9782   -0.3440 H         1 <0>         0.1367
     49 H11         8.6960   -3.4410    1.8962 H         1 <0>         0.1319
     50 H12         0.7772    0.8878    2.7535 H         1 <0>         0.1349
     51 H13        -0.7986    1.7777    4.3903 H         1 <0>         0.1299
     52 H14         1.7133    0.4649    7.5935 H         1 <0>         0.1224
     53 H15        -1.1598    0.8423    8.8408 H         1 <0>         0.0743
     54 H16         0.6037    0.9937    8.6293 H         1 <0>         0.1028
     55 H17        -0.3459    2.6777   10.2464 H         1 <0>         0.0976
     56 H18         0.4639    3.4286    8.8496 H         1 <0>         0.0916
     57 H19        -2.5405    2.9520    9.1055 H         1 <0>         0.1371
     58 H20        -2.6470    4.3468    7.0472 H         1 <0>         0.0990
     59 H21        -0.8678    4.3945    6.9983 H         1 <0>         0.0920
     60 H22        -1.6472    2.6389    5.4932 H         1 <0>         0.1055
     61 H23        -2.6291    1.9163    6.7935 H         1 <0>         0.0739
     62 H24        -2.5621    4.0486   11.2719 H         1 <0>         0.1281
     63 H25        -0.7839    4.0436   11.2054 H         1 <0>         0.1310
     64 H26        -1.6124    5.7751   12.7763 H         1 <0>         0.1118
     65 H27        -0.7701    6.5169   11.3938 H         1 <0>         0.0868
     66 H28        -3.7915    6.2071   11.7120 H         1 <0>         0.0817
     67 H29        -2.8692    7.7260   11.8369 H         1 <0>         0.0941
     68 H30        -3.9222    7.4403    9.5836 H         1 <0>         0.1121
     69 H31        -2.1450    7.5081    9.4933 H         1 <0>         0.0869
     70 H32        -3.0386    5.6691    8.0889 H         1 <0>         0.1317
     71 H33        -3.8315    4.9638    9.5173 H         1 <0>         0.1281
     72 H34        -0.9456    5.4124    9.2394 H         1 <0>         0.4199
     73 H35         4.0804   -0.8595    6.5454 H         1 <0>         0.4261
@<TRIPOS>BOND
     1    1    6 ar
     2    1    2 ar
     3    1   40 1
     4    2    3 ar
     5    2   41 1
     6    3    4 ar
     7    3   42 1
     8    4    5 ar
     9    4    7 1
    10    5    6 ar
    11    5   43 1
    12    6   44 1
    13    7    8 1
    14    7   45 1
    15    7   46 1
    16    8    9 1
    17    9   14 ar
    18    9   10 ar
    19   10   11 ar
    20   10   47 1
    21   11   12 ar
    22   11   48 1
    23   12   13 ar
    24   12   49 1
    25   13   17 1
    26   13   14 ar
    27   14   15 1
    28   15   16 2
    29   15   19 1
    30   16   17 1
    31   17   18 1
    32   19   27 1
    33   19   20 2
    34   20   21 1
    35   21   26 ar
    36   21   22 ar
    37   22   23 ar
    38   22   50 1
    39   23   24 ar
    40   23   51 1
    41   24   25 ar
    42   24   28 1
    43   25   26 ar
    44   25   52 1
    45   26   27 1
    46   27   73 1
    47   28   33 1
    48   28   29 1
    49   29   30 1
    50   29   53 1
    51   29   54 1
    52   30   31 1
    53   30   55 1
    54   30   56 1
    55   31   32 1
    56   31   34 1
    57   31   57 1
    58   32   33 1
    59   32   58 1
    60   32   59 1
    61   33   60 1
    62   33   61 1
    63   34   39 1
    64   34   35 1
    65   34   72 1
    66   35   36 1
    67   35   62 1
    68   35   63 1
    69   36   37 1
    70   36   64 1
    71   36   65 1
    72   37   38 1
    73   37   66 1
    74   37   67 1
    75   38   39 1
    76   38   68 1
    77   38   69 1
    78   39   70 1
    79   39   71 1
@<TRIPOS>MOLECULE
CHEMBL1090479
   72    76     0     0     0
SMALL
USER_CHARGES

@<TRIPOS>ATOM
      1 C1          0.2065    1.9793   -0.0342 C.3       1 <0>        -0.1665
      2 C2         -0.0710    0.4975    0.2268 C.3       1 <0>         0.1267
      3 N1          0.6656   -0.3156   -0.7441 N.pl3     1 <0>        -0.3596
      4 C3          1.5251   -1.3103   -0.4474 C.2       1 <0>         0.0834
      5 C4          1.9992   -1.8173   -1.6224 C.2       1 <0>        -0.2084
      6 C5          1.3909   -1.0872   -2.6763 C.2       1 <0>         0.1396
      7 N2          0.5906   -0.1944   -2.1367 N.2       1 <0>        -0.2737
      8 C6          1.6135   -1.2974   -4.1269 C.ar      1 <0>        -0.0306
      9 C7          1.6870   -2.5911   -4.6418 C.ar      1 <0>        -0.0653
     10 C8          1.8936   -2.7840   -5.9912 C.ar      1 <0>        -0.1479
     11 C9          2.0291   -1.6904   -6.8379 C.ar      1 <0>         0.1764
     12 C10         1.9568   -0.4000   -6.3271 C.ar      1 <0>        -0.1210
     13 C11         1.7441   -0.2018   -4.9794 C.ar      1 <0>        -0.0692
     14 N3          2.2392   -1.8888   -8.2064 N.am      1 <0>        -0.6868
     15 C12         1.7319   -1.0162   -9.0995 C.2       1 <0>         0.7025
     16 O1          1.0144   -0.1094   -8.7235 O.2       1 <0>        -0.5649
     17 N4          2.0199   -1.1486  -10.4095 N.am      1 <0>        -0.6331
     18 C13         1.4684   -0.2001  -11.3803 C.3       1 <0>         0.0998
     19 C14         2.8843   -2.2412  -10.8626 C.3       1 <0>         0.0747
     20 C15         2.9696   -2.9253   -1.7705 C.ar      1 <0>         0.1046
     21 C16         2.6505   -4.2210   -1.3636 C.ar      1 <0>        -0.1961
     22 C17         3.5843   -5.2284   -1.5193 C.ar      1 <0>         0.1572
     23 N5          4.7712   -4.9970   -2.0426 N.ar      1 <0>        -0.5068
     24 C18         5.1367   -3.7881   -2.4493 C.ar      1 <0>         0.3000
     25 C19         4.2446   -2.7061   -2.3328 C.ar      1 <0>        -0.1366
     26 C20         4.9036   -1.5649   -2.8480 C.2       1 <0>        -0.1235
     27 C21         6.1360   -1.9531   -3.2596 C.2       1 <0>         0.0868
     28 N6          6.2920   -3.3007   -3.0153 N.pl3     1 <0>        -0.5749
     29 H1          7.0840   -3.8226   -3.2186 H         1 <0>         0.4155
     30 C22         7.1551   -1.0687   -3.8637 C.ar      1 <0>        -0.0002
     31 C23         6.8859    0.2889   -4.0459 C.ar      1 <0>        -0.0681
     32 C24         7.8411    1.1086   -4.6101 C.ar      1 <0>        -0.1012
     33 C25         9.0640    0.5879   -4.9952 C.ar      1 <0>        -0.0993
     34 C26         9.3370   -0.7566   -4.8179 C.ar      1 <0>        -0.1519
     35 C27         8.3926   -1.5862   -4.2490 C.ar      1 <0>        -0.0991
     36 C28        10.6713   -1.3151   -5.2407 C.3       1 <0>         0.0432
     37 N7         11.6166   -1.2266   -4.1197 N.4       1 <0>        -0.3867
     38 C29        12.8795   -1.8784   -4.4916 C.3       1 <0>        -0.0479
     39 C30        11.8691    0.1853   -3.8024 C.3       1 <0>        -0.0538
     40 H2          1.2746    2.1722    0.0663 H         1 <0>         0.0600
     41 H3         -0.1160    2.2372   -1.0429 H         1 <0>         0.0725
     42 H4         -0.3415    2.5843    0.6882 H         1 <0>         0.0790
     43 H5          0.2515    0.2396    1.2356 H         1 <0>         0.1000
     44 H6         -1.1390    0.3046    0.1263 H         1 <0>         0.0906
     45 H7          1.7916   -1.6461    0.5439 H         1 <0>         0.1791
     46 H8          1.5824   -3.4413   -3.9841 H         1 <0>         0.1255
     47 H9          1.9505   -3.7859   -6.3905 H         1 <0>         0.1262
     48 H10         2.0628    0.4482   -6.9871 H         1 <0>         0.1382
     49 H11         1.6832    0.8012   -4.5836 H         1 <0>         0.1279
     50 H12         2.7500   -2.6545   -8.5128 H         1 <0>         0.4060
     51 H13         2.1557    0.6373  -11.5008 H         1 <0>         0.0561
     52 H14         1.3327   -0.6996  -12.3395 H         1 <0>         0.0734
     53 H15         0.5067    0.1678  -11.0228 H         1 <0>         0.0809
     54 H16         2.2747   -3.1143  -11.0953 H         1 <0>         0.0612
     55 H17         3.4271   -1.9289  -11.7548 H         1 <0>         0.0805
     56 H18         3.5944   -2.4933  -10.0750 H         1 <0>         0.0647
     57 H19         1.6842   -4.4347   -0.9313 H         1 <0>         0.1414
     58 H20         3.3348   -6.2306   -1.2035 H         1 <0>         0.1659
     59 H21         4.4984   -0.5653   -2.9034 H         1 <0>         0.1472
     60 H22         5.9318    0.6965   -3.7460 H         1 <0>         0.1417
     61 H23         7.6340    2.1590   -4.7519 H         1 <0>         0.1419
     62 H24         9.8085    1.2340   -5.4365 H         1 <0>         0.1335
     63 H25         8.6088   -2.6347   -4.1062 H         1 <0>         0.1259
     64 H26        10.5522   -2.3580   -5.5341 H         1 <0>         0.1362
     65 H27        11.0541   -0.7416   -6.0849 H         1 <0>         0.1377
     66 H28        13.3025   -1.3801   -5.3638 H         1 <0>         0.1231
     67 H29        13.5809   -1.8128   -3.6598 H         1 <0>         0.1252
     68 H30        12.6920   -2.9261   -4.7270 H         1 <0>         0.1234
     69 H31        10.9321    0.6689   -3.5265 H         1 <0>         0.1242
     70 H32        12.5705    0.2509   -2.9706 H         1 <0>         0.1244
     71 H33        12.2922    0.6837   -4.6746 H         1 <0>         0.1229
     72 H34        11.2250   -1.6880   -3.3123 H         1 <0>         0.4260
@<TRIPOS>BOND
     1    1    2 1
     2    1   40 1
     3    1   41 1
     4    1   42 1
     5    2    3 1
     6    2   43 1
     7    2   44 1
     8    3    7 1
     9    3    4 1
    10    4    5 2
    11    4   45 1
    12    5    6 1
    13    5   20 1
    14    6    7 2
    15    6    8 1
    16    8   13 ar
    17    8    9 ar
    18    9   10 ar
    19    9   46 1
    20   10   11 ar
    21   10   47 1
    22   11   12 ar
    23   11   14 1
    24   12   13 ar
    25   12   48 1
    26   13   49 1
    27   14   15 am
    28   14   50 1
    29   15   16 2
    30   15   17 am
    31   17   18 1
    32   17   19 1
    33   18   51 1
    34   18   52 1
    35   18   53 1
    36   19   54 1
    37   19   55 1
    38   19   56 1
    39   20   25 ar
    40   20   21 ar
    41   21   22 ar
    42   21   57 1
    43   22   23 ar
    44   22   58 1
    45   23   24 ar
    46   24   28 1
    47   24   25 ar
    48   25   26 1
    49   26   27 2
    50   26   59 1
    51   27   28 1
    52   27   30 1
    53   28   29 1
    54   30   35 ar
    55   30   31 ar
    56   31   32 ar
    57   31   60 1
    58   32   33 ar
    59   32   61 1
    60   33   34 ar
    61   33   62 1
    62   34   35 ar
    63   34   36 1
    64   35   63 1
    65   36   37 1
    66   36   64 1
    67   36   65 1
    68   37   38 1
    69   37   39 1
    70   37   72 1
    71   38   66 1
    72   38   67 1
    73   38   68 1
    74   39   69 1
    75   39   70 1
    76   39   71 1
@<TRIPOS>MOLECULE
CHEMBL190980
   55    59     0     0     0
SMALL
USER_CHARGES

@<TRIPOS>ATOM
      1 C1         -0.6424    1.7717   -0.1518 C.3       1 <0>        -0.1579
      2 C2         -0.2413    0.2953   -0.1602 C.3       1 <0>        -0.0227
      3 C3          0.7234    0.0222    0.9955 C.3       1 <0>        -0.1569
      4 C4         -1.4715   -0.5604   -0.0004 C.2       1 <0>        -0.0123
      5 C5         -2.3714   -0.5423    1.0825 C.2       1 <0>        -0.0967
      6 C6         -3.3508   -1.4829    0.8194 C.2       1 <0>         0.1193
      7 N1         -3.0860   -2.0636   -0.3630 N.pl3     1 <0>        -0.2295
      8 C7         -1.9351   -1.5065   -0.8888 C.2       1 <0>        -0.1092
      9 C8         -1.4723   -1.9715   -2.1439 C.2       1 <0>         0.5395
     10 N2         -2.1518   -2.9160   -2.7728 N.2       1 <0>        -0.6228
     11 C9         -3.2608   -3.4406   -2.2546 C.2       1 <0>         0.3350
     12 N3         -3.7371   -3.0640   -1.1000 N.2       1 <0>        -0.3418
     13 N4         -0.3260   -1.4449   -2.7044 N.pl3     1 <0>        -0.6145
     14 C10         0.0516   -1.8124   -4.0021 C.ar      1 <0>         0.0993
     15 C11        -0.8876   -2.3358   -4.8734 C.ar      1 <0>        -0.0422
     16 C12        -0.5078   -2.7008   -6.1670 C.ar      1 <0>        -0.1541
     17 C13         0.8204   -2.5349   -6.5740 C.ar      1 <0>         0.1852
     18 C14         1.7507   -2.0113   -5.6962 C.ar      1 <0>        -0.1741
     19 C15         1.3710   -1.6454   -4.4167 C.ar      1 <0>         0.1354
     20 F1          2.2839   -1.1289   -3.5652 F         1 <0>        -0.1187
     21 F2          1.1934   -2.8867   -7.8239 F         1 <0>        -0.0993
     22 C16        -1.5040   -3.2601   -7.1011 C.2       1 <0>         0.5754
     23 O1         -1.1712   -3.5771   -8.2267 O.2       1 <0>        -0.4974
     24 N5         -2.7829   -3.4193   -6.7065 N.am      1 <0>        -0.5940
     25 O2         -3.7388   -3.9559   -7.6029 O.3       1 <0>        -0.1369
     26 C17        -5.0526   -4.0687   -7.0523 C.3       1 <0>        -0.0032
     27 C18        -2.2850    0.3213    2.2791 C.2       1 <0>         0.2453
     28 N6         -1.3586    1.2177    2.5273 N.2       1 <0>        -0.2640
     29 N7         -1.6028    1.7780    3.6594 N.2       1 <0>        -0.2826
     30 C19        -2.6848    1.2666    4.1746 C.2       1 <0>         0.2005
     31 O3         -3.1459    0.3393    3.3161 O.3       1 <0>        -0.2175
     32 C20        -3.3096    1.6485    5.4918 C.3       1 <0>        -0.0890
     33 C21        -2.7410    2.8708    6.2153 C.3       1 <0>        -0.1425
     34 C22        -2.4644    1.4657    6.7539 C.3       1 <0>        -0.1509
     35 H1          0.2474    2.3906   -0.2674 H         1 <0>         0.0662
     36 H2         -1.3297    1.9662   -0.9751 H         1 <0>         0.0489
     37 H3         -1.1306    2.0102    0.7931 H         1 <0>         0.0916
     38 H4          0.2469    0.0567   -1.1051 H         1 <0>         0.0595
     39 H5          0.2352    0.2608    1.9404 H         1 <0>         0.0892
     40 H6          1.0092   -1.0296    0.9895 H         1 <0>         0.0493
     41 H7          1.6132    0.6411    0.8799 H         1 <0>         0.0668
     42 H8         -4.1901   -1.7128    1.4590 H         1 <0>         0.1953
     43 H9         -3.7807   -4.2095   -2.8068 H         1 <0>         0.2257
     44 H10         0.2181   -0.8204   -2.1996 H         1 <0>         0.4309
     45 H11        -1.9115   -2.4620   -4.5538 H         1 <0>         0.1817
     46 H12         2.7759   -1.8835   -6.0109 H         1 <0>         0.1683
     47 H13        -3.0484   -3.1664   -5.8085 H         1 <0>         0.4068
     48 H14        -5.7254   -4.4875   -7.8007 H         1 <0>         0.1167
     49 H15        -5.0265   -4.7226   -6.1807 H         1 <0>         0.0588
     50 H16        -5.4082   -3.0819   -6.7557 H         1 <0>         0.0574
     51 H17        -4.3815    1.4684    5.5734 H         1 <0>         0.1389
     52 H18        -1.9150    3.3987    5.7387 H         1 <0>         0.1135
     53 H19        -3.4389    3.4952    6.7731 H         1 <0>         0.1131
     54 H20        -2.9803    1.1657    7.6661 H         1 <0>         0.1130
     55 H21        -1.4564    1.0692    6.6316 H         1 <0>         0.1041
@<TRIPOS>BOND
     1    1    2 1
     2    1   35 1
     3    1   36 1
     4    1   37 1
     5    2    3 1
     6    2    4 1
     7    2   38 1
     8    3   39 1
     9    3   40 1
    10    3   41 1
    11    4    8 2
    12    4    5 1
    13    5    6 2
    14    5   27 1
    15    6    7 1
    16    6   42 1
    17    7   12 1
    18    7    8 1
    19    8    9 1
    20    9   10 2
    21    9   13 1
    22   10   11 1
    23   11   12 2
    24   11   43 1
    25   13   14 1
    26   13   44 1
    27   14   19 ar
    28   14   15 ar
    29   15   16 ar
    30   15   45 1
    31   16   17 ar
    32   16   22 1
    33   17   18 ar
    34   17   21 1
    35   18   19 ar
    36   18   46 1
    37   19   20 1
    38   22   23 2
    39   22   24 am
    40   24   25 1
    41   24   47 1
    42   25   26 1
    43   26   48 1
    44   26   49 1
    45   26   50 1
    46   27   31 1
    47   27   28 2
    48   28   29 1
    49   29   30 2
    50   30   31 1
    51   30   32 1
    52   32   34 1
    53   32   33 1
    54   32   51 1
    55   33   34 1
    56   33   52 1
    57   33   53 1
    58   34   54 1
    59   34   55 1
@<TRIPOS>MOLECULE
CHEMBL448154
   44    47     0     0     0
SMALL
USER_CHARGES

@<TRIPOS>ATOM
      1 C1          0.4318    0.8745   -0.0798 C.3       1 <0>        -0.1644
      2 C2          0.1682   -0.6289    0.0265 C.3       1 <0>         0.0939
      3 N1         -1.2764   -0.8725    0.0266 N.am      1 <0>        -0.5002
      4 C3         -1.9614   -0.8933    1.2153 C.ar      1 <0>         0.4651
      5 C4         -3.3536   -1.1267    1.2330 C.ar      1 <0>        -0.2404
      6 C5         -4.0544   -1.3413    0.0241 C.2       1 <0>         0.0044
      7 C6         -3.3625   -1.3187   -1.1570 C.2       1 <0>        -0.1261
      8 C7         -1.9196   -1.0684   -1.1405 C.2       1 <0>         0.5512
      9 O1         -1.2972   -1.0414   -2.1873 O.2       1 <0>        -0.4797
     10 C8         -4.0681   -1.5400   -2.4409 C.ar      1 <0>        -0.0263
     11 C9         -4.2067   -2.8315   -2.9507 C.ar      1 <0>        -0.0048
     12 C10        -4.8655   -3.0309   -4.1481 C.ar      1 <0>        -0.1036
     13 C11        -5.3873   -1.9538   -4.8416 C.ar      1 <0>        -0.0805
     14 C12        -5.2529   -0.6710   -4.3420 C.ar      1 <0>        -0.1035
     15 C13        -4.6018   -0.4584   -3.1426 C.ar      1 <0>        -0.0048
     16 Cl1        -4.4414    1.1515   -2.5132 Cl        1 <0>        -0.0500
     17 Cl2        -3.5521   -4.1846   -2.0822 Cl        1 <0>        -0.0503
     18 C14        -4.0162   -1.1394    2.4695 C.ar      1 <0>         0.2617
     19 N2         -3.3112   -0.9326    3.5661 N.ar      1 <0>        -0.5800
     20 C15        -2.0018   -0.7162    3.5112 C.ar      1 <0>         0.5839
     21 N3         -1.3331   -0.6949    2.3686 N.ar      1 <0>        -0.5692
     22 N4         -1.3119   -0.5049    4.6904 N.pl3     1 <0>        -0.6206
     23 C16        -1.9660   -0.6378    5.9138 C.ar      1 <0>         0.3042
     24 C17        -2.9314   -1.6257    6.1052 C.ar      1 <0>        -0.1355
     25 C18        -3.5557   -1.7239    7.3311 C.ar      1 <0>         0.1515
     26 N5         -3.2499   -0.8982    8.3143 N.ar      1 <0>        -0.4672
     27 C19        -2.3422    0.0494    8.1725 C.ar      1 <0>         0.1593
     28 C20        -1.6680    0.2100    6.9801 C.ar      1 <0>        -0.1676
     29 H1          1.5067    1.0557   -0.0799 H         1 <0>         0.0820
     30 H2         -0.0009    1.2547   -1.0052 H         1 <0>         0.0640
     31 H3         -0.0225    1.3840    0.7700 H         1 <0>         0.0580
     32 H4          0.6225   -1.1384   -0.8233 H         1 <0>         0.1038
     33 H5          0.6009   -1.0091    0.9518 H         1 <0>         0.1020
     34 H6         -5.1194   -1.5206    0.0323 H         1 <0>         0.1579
     35 H7         -4.9732   -4.0300   -4.5440 H         1 <0>         0.1471
     36 H8         -5.9016   -2.1151   -5.7775 H         1 <0>         0.1492
     37 H9         -5.6623    0.1658   -4.8885 H         1 <0>         0.1470
     38 H10        -5.0806   -1.3143    2.5230 H         1 <0>         0.1971
     39 H11        -0.3726   -0.2641    4.6663 H         1 <0>         0.4444
     40 H12        -3.1868   -2.3041    5.3047 H         1 <0>         0.1862
     41 H13        -4.3046   -2.4860    7.4884 H         1 <0>         0.2110
     42 H14        -2.1216    0.7047    9.0022 H         1 <0>         0.2122
     43 H15        -0.9231    0.9845    6.8722 H         1 <0>         0.1858
     44 H16        -3.7056   -0.9903    9.1656 H         1 <0>         0.4518
@<TRIPOS>BOND
     1    1    2 1
     2    1   29 1
     3    1   30 1
     4    1   31 1
     5    2    3 1
     6    2   32 1
     7    2   33 1
     8    3    8 am
     9    3    4 1
    10    4   21 ar
    11    4    5 ar
    12    5    6 1
    13    5   18 ar
    14    6    7 2
    15    6   34 1
    16    7    8 1
    17    7   10 1
    18    8    9 2
    19   10   15 ar
    20   10   11 ar
    21   11   12 ar
    22   11   17 1
    23   12   13 ar
    24   12   35 1
    25   13   14 ar
    26   13   36 1
    27   14   15 ar
    28   14   37 1
    29   15   16 1
    30   18   19 ar
    31   18   38 1
    32   19   20 ar
    33   20   21 ar
    34   20   22 1
    35   22   23 1
    36   22   39 1
    37   23   28 ar
    38   23   24 ar
    39   24   25 ar
    40   24   40 1
    41   25   26 ar
    42   25   41 1
    43   26   27 ar
    44   26   44 1
    45   27   28 ar
    46   27   42 1
    47   28   43 1
@<TRIPOS>MOLECULE
CHEMBL204426
   46    50     0     0     0
SMALL
USER_CHARGES

@<TRIPOS>ATOM
      1 C1          0.0803    1.6895    0.1161 C.ar      1 <0>        -0.1506
      2 C2          1.3132    2.3256    0.0799 C.ar      1 <0>        -0.0496
      3 C3          2.4807    1.5943    0.0329 C.ar      1 <0>        -0.1660
      4 C4          2.4260    0.2042    0.0217 C.ar      1 <0>         0.2165
      5 C5          1.1743   -0.4356    0.0585 C.ar      1 <0>        -0.1510
      6 C6          0.0029    0.3251    0.1059 C.ar      1 <0>        -0.0492
      7 C7          1.1237   -1.9033    0.0464 C.2       1 <0>         0.3682
      8 C8          2.3311   -2.6031   -0.0016 C.2       1 <0>        -0.2990
      9 C9          3.5524   -1.8890   -0.0367 C.2       1 <0>         0.5786
     10 O1          4.6016   -2.5076   -0.0789 O.2       1 <0>        -0.5604
     11 N1          3.5838   -0.5461   -0.0247 N.am      1 <0>        -0.6375
     12 H1          4.4409   -0.0926   -0.0501 H         1 <0>         0.4184
     13 C10         2.3336   -4.0754   -0.0150 C.2       1 <0>         0.3965
     14 N2          3.4526   -4.8627    0.0555 N.pl3     1 <0>        -0.5811
     15 H2          4.3701   -4.5549    0.1221 H         1 <0>         0.4329
     16 C11         3.0281   -6.1811    0.0142 C.ar      1 <0>        -0.0035
     17 C12         3.6860   -7.4019    0.0485 C.ar      1 <0>        -0.0585
     18 C13         2.9642   -8.5749   -0.0124 C.ar      1 <0>        -0.1731
     19 C14         1.5745   -8.5431   -0.1089 C.ar      1 <0>         0.2158
     20 C15         0.9040   -7.3348   -0.1442 C.ar      1 <0>        -0.1699
     21 C16         1.6265   -6.1390   -0.0825 C.ar      1 <0>         0.1139
     22 N3          1.2629   -4.8326   -0.0907 N.2       1 <0>        -0.5451
     23 N4          0.8537   -9.7408   -0.1709 N.pl3     1 <0>        -0.6342
     24 C17        -0.5987   -9.7395   -0.4074 C.3       1 <0>         0.0881
     25 C18        -0.9032  -10.7134   -1.5514 C.3       1 <0>         0.0456
     26 O2         -0.3083  -11.9807   -1.2616 O.3       1 <0>        -0.3801
     27 C19         1.1178  -11.9496   -1.1659 C.3       1 <0>         0.0451
     28 C20         1.5267  -11.0392   -0.0078 C.3       1 <0>         0.0881
     29 N5         -0.0776   -2.5689    0.0818 N.pl3     1 <0>        -0.8028
     30 H3         -0.8248    2.2772    0.1572 H         1 <0>         0.1350
     31 H4          1.3583    3.4046    0.0882 H         1 <0>         0.1370
     32 H5          3.4351    2.0990    0.0046 H         1 <0>         0.1399
     33 H6         -0.9599   -0.1634    0.1347 H         1 <0>         0.1328
     34 H7          4.7630   -7.4334    0.1225 H         1 <0>         0.1240
     35 H8          3.4789   -9.5240    0.0144 H         1 <0>         0.1301
     36 H9         -0.1732   -7.3143   -0.2186 H         1 <0>         0.1265
     37 H10        -1.1179  -10.0602    0.4958 H         1 <0>         0.0696
     38 H11        -0.9249   -8.7365   -0.6825 H         1 <0>         0.0930
     39 H12        -1.9821  -10.8320   -1.6511 H         1 <0>         0.1042
     40 H13        -0.4916  -10.3223   -2.4818 H         1 <0>         0.0556
     41 H14         1.4928  -12.9575   -0.9883 H         1 <0>         0.1045
     42 H15         1.5367  -11.5629   -2.0949 H         1 <0>         0.0553
     43 H16         2.6073  -10.8965   -0.0184 H         1 <0>         0.0925
     44 H17         1.2251  -11.4930    0.9363 H         1 <0>         0.0698
     45 H18        -0.9038   -2.0730    0.1926 H         1 <0>         0.4004
     46 H19        -0.0996   -3.5349   -0.0040 H         1 <0>         0.4334
@<TRIPOS>BOND
     1    1    6 ar
     2    1    2 ar
     3    1   30 1
     4    2    3 ar
     5    2   31 1
     6    3    4 ar
     7    3   32 1
     8    4   11 1
     9    4    5 ar
    10    5    6 ar
    11    5    7 1
    12    6   33 1
    13    7    8 2
    14    7   29 1
    15    8    9 1
    16    8   13 1
    17    9   10 2
    18    9   11 am
    19   11   12 1
    20   13   22 2
    21   13   14 1
    22   14   15 1
    23   14   16 1
    24   16   21 ar
    25   16   17 ar
    26   17   18 ar
    27   17   34 1
    28   18   19 ar
    29   18   35 1
    30   19   20 ar
    31   19   23 1
    32   20   21 ar
    33   20   36 1
    34   21   22 1
    35   23   28 1
    36   23   24 1
    37   24   25 1
    38   24   37 1
    39   24   38 1
    40   25   26 1
    41   25   39 1
    42   25   40 1
    43   26   27 1
    44   27   28 1
    45   27   41 1
    46   27   42 1
    47   28   43 1
    48   28   44 1
    49   29   45 1
    50   29   46 1
@<TRIPOS>MOLECULE
CHEMBL336093
   40    43     0     0     0
SMALL
USER_CHARGES

@<TRIPOS>ATOM
      1 C1         -0.0167    1.3791    0.0096 C.ar      1 <0>        -0.0876
      2 C2          1.1681    2.0930    0.0021 C.ar      1 <0>        -0.1066
      3 C3          2.3785    1.4279   -0.0129 C.ar      1 <0>        -0.0065
      4 C4          2.4045    0.0328   -0.0206 C.ar      1 <0>        -0.0087
      5 C5          1.2057   -0.6813   -0.0130 C.ar      1 <0>        -0.0070
      6 C6          0.0021   -0.0041    0.0020 C.ar      1 <0>        -0.1066
      7 Cl1         1.2271   -2.4172   -0.0225 Cl        1 <0>        -0.0498
      8 C7          3.6993   -0.6872   -0.0373 C.2       1 <0>        -0.1679
      9 C8          4.3119   -1.0341    1.1369 C.2       1 <0>         0.0337
     10 C9          5.5465   -1.7210    1.0888 C.ar      1 <0>        -0.2850
     11 C10         6.2142   -2.0993    2.2636 C.ar      1 <0>         0.2708
     12 N1          7.3638   -2.7389    2.1587 N.ar      1 <0>        -0.5819
     13 C11         7.8865   -3.0237    0.9708 C.ar      1 <0>         0.6159
     14 N2          7.2940   -2.6875   -0.1643 N.ar      1 <0>        -0.6042
     15 C12         6.1332   -2.0411   -0.1542 C.ar      1 <0>         0.4712
     16 N3          5.5121   -1.6894   -1.3259 N.am      1 <0>        -0.5002
     17 C13         4.3325   -1.0395   -1.3100 C.2       1 <0>         0.5604
     18 O1          3.7921   -0.7387   -2.3595 O.2       1 <0>        -0.5006
     19 C14         6.1353   -2.0297   -2.6073 C.3       1 <0>         0.1428
     20 C15         5.6580   -3.3878   -3.0531 C.ar      1 <0>        -0.0695
     21 C16         6.3391   -4.5368   -2.6811 C.ar      1 <0>        -0.1457
     22 C17         5.8718   -5.7650   -3.1089 C.ar      1 <0>         0.0914
     23 N4          4.7927   -5.8511   -3.8620 N.ar      1 <0>        -0.4778
     24 C18         4.1200   -4.7799   -4.2349 C.ar      1 <0>         0.0953
     25 C19         4.5241   -3.5185   -3.8402 C.ar      1 <0>        -0.1454
     26 N5          9.0922   -3.6943    0.9183 N.pl3     1 <0>        -0.8055
     27 Cl2         3.8643    2.3257   -0.0229 Cl        1 <0>        -0.0505
     28 H1         -0.9605    1.9038    0.0260 H         1 <0>         0.1451
     29 H2          1.1466    3.1727    0.0078 H         1 <0>         0.1435
     30 H3         -0.9265   -0.5556    0.0082 H         1 <0>         0.1434
     31 H4          3.8589   -0.7865    2.0855 H         1 <0>         0.1494
     32 H5          5.7964   -1.8714    3.2331 H         1 <0>         0.1862
     33 H6          5.8604   -1.2848   -3.3541 H         1 <0>         0.1101
     34 H7          7.2190   -2.0453   -2.4915 H         1 <0>         0.1139
     35 H8          7.2239   -4.4727   -2.0650 H         1 <0>         0.1398
     36 H9          6.3966   -6.6647   -2.8235 H         1 <0>         0.1555
     37 H10         3.2408   -4.8899   -4.8524 H         1 <0>         0.1575
     38 H11         3.9662   -2.6454   -4.1447 H         1 <0>         0.1416
     39 H12         9.5418   -3.9487    1.7393 H         1 <0>         0.4213
     40 H13         9.4897   -3.9110    0.0604 H         1 <0>         0.4183
@<TRIPOS>BOND
     1    1    6 ar
     2    1    2 ar
     3    1   28 1
     4    2    3 ar
     5    2   29 1
     6    3    4 ar
     7    3   27 1
     8    4    5 ar
     9    4    8 1
    10    5    6 ar
    11    5    7 1
    12    6   30 1
    13    8   17 1
    14    8    9 2
    15    9   10 1
    16    9   31 1
    17   10   15 ar
    18   10   11 ar
    19   11   12 ar
    20   11   32 1
    21   12   13 ar
    22   13   14 ar
    23   13   26 1
    24   14   15 ar
    25   15   16 1
    26   16   17 am
    27   16   19 1
    28   17   18 2
    29   19   20 1
    30   19   33 1
    31   19   34 1
    32   20   25 ar
    33   20   21 ar
    34   21   22 ar
    35   21   35 1
    36   22   23 ar
    37   22   36 1
    38   23   24 ar
    39   24   25 ar
    40   24   37 1
    41   25   38 1
    42   26   39 1
    43   26   40 1
@<TRIPOS>MOLECULE
CHEMBL108333
   62    65     0     0     0
SMALL
USER_CHARGES

@<TRIPOS>ATOM
      1 C1         -0.0178    1.4608    0.0101 C.3       1 <0>         0.0619
      2 N1          0.0021   -0.0041    0.0020 N.am      1 <0>        -0.5219
      3 C2         -1.1832   -0.7026    0.0039 C.ar      1 <0>         0.2708
      4 C3         -2.4056   -0.0412    0.0132 C.ar      1 <0>        -0.2961
      5 C4         -3.5734   -0.7908    0.0143 C.ar      1 <0>         0.4421
      6 N2         -3.5407   -2.1192    0.0065 N.ar      1 <0>        -0.5562
      7 C5         -2.4109   -2.7924   -0.0026 C.ar      1 <0>         0.2359
      8 C6         -1.1855   -2.1147   -0.0043 C.ar      1 <0>        -0.2314
      9 C7          0.0397   -2.8227   -0.0135 C.2       1 <0>         0.0238
     10 C8          1.2142   -2.1207   -0.0144 C.2       1 <0>        -0.1609
     11 C9          1.1810   -0.6564   -0.0127 C.2       1 <0>         0.5520
     12 O1          2.2233   -0.0259   -0.0189 O.2       1 <0>        -0.5086
     13 C10         2.5110   -2.8371   -0.0239 C.ar      1 <0>        -0.0129
     14 C11         3.1266   -3.1880    1.1783 C.ar      1 <0>        -0.0072
     15 C12         4.3355   -3.8557    1.1624 C.ar      1 <0>        -0.1057
     16 C13         4.9362   -4.1763   -0.0417 C.ar      1 <0>        -0.0864
     17 C14         4.3313   -3.8315   -1.2369 C.ar      1 <0>        -0.1056
     18 C15         3.1193   -3.1691   -1.2351 C.ar      1 <0>        -0.0072
     19 Cl1         2.3582   -2.7435   -2.7362 Cl        1 <0>        -0.0518
     20 Cl2         2.3749   -2.7855    2.6904 Cl        1 <0>        -0.0517
     21 N3         -4.7988   -0.1407    0.0241 N.pl3     1 <0>        -0.7208
     22 C16        -4.8513    1.3233    0.0332 C.3       1 <0>         0.1259
     23 C17        -6.3112    1.7812    0.0430 C.3       1 <0>        -0.1301
     24 C18        -6.3660    3.3102    0.0525 C.3       1 <0>        -0.1458
     25 C19        -7.8258    3.7681    0.0622 C.3       1 <0>        -0.0082
     26 N4         -7.8785    5.2362    0.0714 N.4       1 <0>        -0.3869
     27 C20        -7.3035    5.7386    1.3262 C.3       1 <0>        -0.0068
     28 C21        -7.3409    7.2684    1.3281 C.3       1 <0>         0.0243
     29 N5         -8.7322    7.7217    1.1905 N.3       1 <0>        -0.5439
     30 C22        -9.3292    7.2057   -0.0494 C.3       1 <0>         0.0238
     31 C23        -9.2753    5.6764   -0.0400 C.3       1 <0>        -0.0020
     32 C24        -8.8162    9.1873    1.2451 C.3       1 <0>         0.0191
     33 H1          1.0048    1.8381    0.0023 H         1 <0>         0.1051
     34 H2         -0.5450    1.8219   -0.8730 H         1 <0>         0.0749
     35 H3         -0.5280    1.8123    0.9069 H         1 <0>         0.0752
     36 H4         -2.4459    1.0381    0.0200 H         1 <0>         0.1386
     37 H5         -2.4284   -3.8722   -0.0087 H         1 <0>         0.1762
     38 H6          0.0476   -3.9026   -0.0194 H         1 <0>         0.1475
     39 H7          4.8130   -4.1278    2.0921 H         1 <0>         0.1444
     40 H8          5.8819   -4.6979   -0.0486 H         1 <0>         0.1465
     41 H9          4.8055   -4.0847   -2.1736 H         1 <0>         0.1444
     42 H10        -5.6209   -0.6556    0.0249 H         1 <0>         0.4103
     43 H11        -4.3466    1.6994    0.9231 H         1 <0>         0.0690
     44 H12        -4.3551    1.7102   -0.8568 H         1 <0>         0.0690
     45 H13        -6.8159    1.4051   -0.8469 H         1 <0>         0.0850
     46 H14        -6.8074    1.3943    0.9330 H         1 <0>         0.0851
     47 H15        -5.8613    3.6863    0.9424 H         1 <0>         0.0915
     48 H16        -5.8698    3.6971   -0.8375 H         1 <0>         0.0912
     49 H17        -8.3305    3.3920   -0.8276 H         1 <0>         0.1333
     50 H18        -8.3220    3.3812    0.9523 H         1 <0>         0.1329
     51 H19        -7.8825    5.3600    2.1684 H         1 <0>         0.1385
     52 H20        -6.2710    5.4003    1.4138 H         1 <0>         0.1365
     53 H21        -6.9279    7.6411    2.2654 H         1 <0>         0.1239
     54 H22        -6.7507    7.6477    0.4939 H         1 <0>         0.0605
     55 H23       -10.3668    7.5327   -0.1170 H         1 <0>         0.1244
     56 H24        -8.7717    7.5839   -0.9063 H         1 <0>         0.0606
     57 H25        -9.7048    5.2920   -0.9651 H         1 <0>         0.1364
     58 H26        -9.8443    5.2981    0.8093 H         1 <0>         0.1382
     59 H27        -8.2273    9.6154    0.4338 H         1 <0>         0.0399
     60 H28        -9.8564    9.4957    1.1409 H         1 <0>         0.0844
     61 H29        -8.4271    9.5382    2.2009 H         1 <0>         0.0848
     62 H30        -7.3493    5.5963   -0.7086 H         1 <0>         0.4206
@<TRIPOS>BOND
     1    1    2 1
     2    1   33 1
     3    1   34 1
     4    1   35 1
     5    2   11 am
     6    2    3 1
     7    3    8 ar
     8    3    4 ar
     9    4    5 ar
    10    4   36 1
    11    5    6 ar
    12    5   21 1
    13    6    7 ar
    14    7    8 ar
    15    7   37 1
    16    8    9 1
    17    9   10 2
    18    9   38 1
    19   10   11 1
    20   10   13 1
    21   11   12 2
    22   13   18 ar
    23   13   14 ar
    24   14   15 ar
    25   14   20 1
    26   15   16 ar
    27   15   39 1
    28   16   17 ar
    29   16   40 1
    30   17   18 ar
    31   17   41 1
    32   18   19 1
    33   21   22 1
    34   21   42 1
    35   22   23 1
    36   22   43 1
    37   22   44 1
    38   23   24 1
    39   23   45 1
    40   23   46 1
    41   24   25 1
    42   24   47 1
    43   24   48 1
    44   25   26 1
    45   25   49 1
    46   25   50 1
    47   26   31 1
    48   26   27 1
    49   26   62 1
    50   27   28 1
    51   27   51 1
    52   27   52 1
    53   28   29 1
    54   28   53 1
    55   28   54 1
    56   29   30 1
    57   29   32 1
    58   30   31 1
    59   30   55 1
    60   30   56 1
    61   31   57 1
    62   31   58 1
    63   32   59 1
    64   32   60 1
    65   32   61 1
@<TRIPOS>MOLECULE
CHEMBL108333__1
   62    65     0     0     0
SMALL
USER_CHARGES

@<TRIPOS>ATOM
      1 C1         -0.0178    1.4608    0.0101 C.3       1 <0>         0.0618
      2 N1          0.0021   -0.0041    0.0020 N.am      1 <0>        -0.5217
      3 C2         -1.1832   -0.7026    0.0039 C.ar      1 <0>         0.2711
      4 C3         -2.4056   -0.0412    0.0132 C.ar      1 <0>        -0.2970
      5 C4         -3.5734   -0.7908    0.0143 C.ar      1 <0>         0.4441
      6 N2         -3.5407   -2.1192    0.0065 N.ar      1 <0>        -0.5574
      7 C5         -2.4109   -2.7924   -0.0026 C.ar      1 <0>         0.2357
      8 C6         -1.1855   -2.1147   -0.0043 C.ar      1 <0>        -0.2356
      9 C7          0.0397   -2.8227   -0.0135 C.2       1 <0>         0.0268
     10 C8          1.2142   -2.1207   -0.0144 C.2       1 <0>        -0.1658
     11 C9          1.1810   -0.6564   -0.0127 C.2       1 <0>         0.5527
     12 O1          2.2233   -0.0259   -0.0189 O.2       1 <0>        -0.5115
     13 C10         2.5110   -2.8371   -0.0239 C.ar      1 <0>        -0.0105
     14 C11         3.1266   -3.1880    1.1783 C.ar      1 <0>        -0.0075
     15 C12         4.3355   -3.8557    1.1624 C.ar      1 <0>        -0.1061
     16 C13         4.9362   -4.1763   -0.0417 C.ar      1 <0>        -0.0874
     17 C14         4.3313   -3.8315   -1.2369 C.ar      1 <0>        -0.1059
     18 C15         3.1193   -3.1691   -1.2351 C.ar      1 <0>        -0.0074
     19 Cl1         2.3582   -2.7435   -2.7362 Cl        1 <0>        -0.0515
     20 Cl2         2.3749   -2.7855    2.6904 Cl        1 <0>        -0.0520
     21 N3         -4.7988   -0.1407    0.0241 N.pl3     1 <0>        -0.7182
     22 C16        -4.8513    1.3233    0.0332 C.3       1 <0>         0.1261
     23 C17        -6.3112    1.7812    0.0430 C.3       1 <0>        -0.1326
     24 C18        -6.3660    3.3102    0.0525 C.3       1 <0>        -0.1141
     25 C19        -7.8258    3.7681    0.0622 C.3       1 <0>         0.0546
     26 N4         -7.8785    5.2362    0.0714 N.3       1 <0>        -0.5399
     27 C20        -7.3402    5.7747    1.3285 C.3       1 <0>         0.0201
     28 C21        -7.3576    7.3039    1.2738 C.3       1 <0>        -0.0029
     29 N5         -8.7354    7.7710    1.0712 N.4       1 <0>        -0.3885
     30 C22        -9.2506    7.2452   -0.1999 C.3       1 <0>        -0.0026
     31 C23        -9.2489    5.7155   -0.1574 C.3       1 <0>         0.0249
     32 C24        -8.7542    9.2395    1.0368 C.3       1 <0>        -0.0460
     33 H1          1.0048    1.8381    0.0023 H         1 <0>         0.1043
     34 H2         -0.5450    1.8219   -0.8730 H         1 <0>         0.0757
     35 H3         -0.5280    1.8123    0.9069 H         1 <0>         0.0752
     36 H4         -2.4459    1.0381    0.0200 H         1 <0>         0.1395
     37 H5         -2.4284   -3.8722   -0.0087 H         1 <0>         0.1751
     38 H6          0.0476   -3.9026   -0.0194 H         1 <0>         0.1464
     39 H7          4.8130   -4.1278    2.0921 H         1 <0>         0.1438
     40 H8          5.8819   -4.6979   -0.0486 H         1 <0>         0.1460
     41 H9          4.8055   -4.0847   -2.1736 H         1 <0>         0.1439
     42 H10        -5.6209   -0.6556    0.0249 H         1 <0>         0.4095
     43 H11        -4.3466    1.6994    0.9231 H         1 <0>         0.0657
     44 H12        -4.3551    1.7102   -0.8568 H         1 <0>         0.0680
     45 H13        -6.8159    1.4051   -0.8469 H         1 <0>         0.0772
     46 H14        -6.8074    1.3943    0.9330 H         1 <0>         0.0736
     47 H15        -5.8613    3.6863    0.9424 H         1 <0>         0.0672
     48 H16        -5.8698    3.6971   -0.8375 H         1 <0>         0.0810
     49 H17        -8.3305    3.3920   -0.8276 H         1 <0>         0.0905
     50 H18        -8.3220    3.3812    0.9523 H         1 <0>         0.0485
     51 H19        -7.9536    5.4336    2.1625 H         1 <0>         0.0609
     52 H20        -6.3160    5.4273    1.4640 H         1 <0>         0.1253
     53 H21        -6.9720    7.7054    2.2109 H         1 <0>         0.1357
     54 H22        -6.7332    7.6450    0.4481 H         1 <0>         0.1377
     55 H23       -10.2683    7.6032   -0.3553 H         1 <0>         0.1362
     56 H24        -8.6164    7.5866   -1.0180 H         1 <0>         0.1378
     57 H25        -9.6171    5.3249   -1.1061 H         1 <0>         0.1239
     58 H26        -9.8937    5.3734    0.6521 H         1 <0>         0.0608
     59 H27        -8.1268    9.5918    0.2180 H         1 <0>         0.1233
     60 H28        -9.7765    9.5864    0.8864 H         1 <0>         0.1246
     61 H29        -8.3731    9.6299    1.9804 H         1 <0>         0.1244
     62 H30        -9.3157    7.4453    1.8296 H         1 <0>         0.4225
@<TRIPOS>BOND
     1    1    2 1
     2    1   33 1
     3    1   34 1
     4    1   35 1
     5    2   11 am
     6    2    3 1
     7    3    8 ar
     8    3    4 ar
     9    4    5 ar
    10    4   36 1
    11    5    6 ar
    12    5   21 1
    13    6    7 ar
    14    7    8 ar
    15    7   37 1
    16    8    9 1
    17    9   10 2
    18    9   38 1
    19   10   11 1
    20   10   13 1
    21   11   12 2
    22   13   18 ar
    23   13   14 ar
    24   14   15 ar
    25   14   20 1
    26   15   16 ar
    27   15   39 1
    28   16   17 ar
    29   16   40 1
    30   17   18 ar
    31   17   41 1
    32   18   19 1
    33   21   22 1
    34   21   42 1
    35   22   23 1
    36   22   43 1
    37   22   44 1
    38   23   24 1
    39   23   45 1
    40   23   46 1
    41   24   25 1
    42   24   47 1
    43   24   48 1
    44   25   26 1
    45   25   49 1
    46   25   50 1
    47   26   31 1
    48   26   27 1
    49   27   28 1
    50   27   51 1
    51   27   52 1
    52   28   29 1
    53   28   53 1
    54   28   54 1
    55   29   30 1
    56   29   32 1
    57   29   62 1
    58   30   31 1
    59   30   55 1
    60   30   56 1
    61   31   57 1
    62   31   58 1
    63   32   59 1
    64   32   60 1
    65   32   61 1
@<TRIPOS>MOLECULE
CHEMBL104414
   60    64     0     0     0
SMALL
USER_CHARGES

@<TRIPOS>ATOM
      1 C1         -3.4525   -4.9992   -0.0824 C.3       1 <0>         0.0583
      2 N1         -2.2284   -4.1983   -0.0037 N.am      1 <0>        -0.5203
      3 C2         -2.3126   -2.8256    0.0389 C.ar      1 <0>         0.2708
      4 C3         -3.5436   -2.1812    0.0085 C.ar      1 <0>        -0.2803
      5 C4         -3.5757   -0.7944    0.0543 C.ar      1 <0>         0.4332
      6 N2         -2.4571   -0.0802    0.1260 N.ar      1 <0>        -0.5490
      7 C5         -1.2683   -0.6413    0.1574 C.ar      1 <0>         0.2268
      8 C6         -1.1444   -2.0357    0.1153 C.ar      1 <0>        -0.2249
      9 C7          0.1267   -2.6564    0.1477 C.2       1 <0>         0.0196
     10 C8          0.2021   -4.0220    0.1041 C.2       1 <0>        -0.1561
     11 C9         -1.0293   -4.8119    0.0320 C.2       1 <0>         0.5507
     12 O1         -0.9689   -6.0282   -0.0013 O.2       1 <0>        -0.5061
     13 C10         1.5203   -4.6974    0.1367 C.ar      1 <0>        -0.0134
     14 C11         2.1973   -4.9704   -1.0526 C.ar      1 <0>        -0.0071
     15 C12         3.4259   -5.6003   -1.0152 C.ar      1 <0>        -0.1059
     16 C13         3.9853   -5.9604    0.1975 C.ar      1 <0>        -0.0864
     17 C14         3.3194   -5.6927    1.3800 C.ar      1 <0>        -0.1057
     18 C15         2.0929   -5.0582    1.3570 C.ar      1 <0>        -0.0071
     19 Cl1         1.2621   -4.7166    2.8426 Cl        1 <0>        -0.0511
     20 Cl2         1.4967   -4.5198   -2.5757 Cl        1 <0>        -0.0513
     21 N3         -4.7993   -0.1409    0.0241 N.pl3     1 <0>        -0.6556
     22 C16        -4.8512    1.2538    0.1385 C.ar      1 <0>         0.1253
     23 C17        -5.8963    1.8556    0.8272 C.ar      1 <0>        -0.1026
     24 C18        -5.9472    3.2307    0.9404 C.ar      1 <0>        -0.1655
     25 C19        -4.9534    4.0121    0.3656 C.ar      1 <0>         0.1779
     26 C20        -3.9083    3.4103   -0.3232 C.ar      1 <0>        -0.1651
     27 C21        -3.8546    2.0349   -0.4319 C.ar      1 <0>        -0.0647
     28 N4         -5.0053    5.4059    0.4799 N.pl3     1 <0>        -0.6458
     29 C22        -4.0461    6.2599   -0.2375 C.3       1 <0>         0.1008
     30 C23        -4.8276    7.3406   -0.9920 C.3       1 <0>        -0.0232
     31 N5         -5.6959    8.0612   -0.0524 N.4       1 <0>        -0.3837
     32 C24        -6.7091    7.1488    0.4926 C.3       1 <0>        -0.0230
     33 C25        -6.0244    6.0588    1.3161 C.3       1 <0>         0.0994
     34 C26        -6.3619    9.1671   -0.7535 C.3       1 <0>        -0.0470
     35 H1         -3.1934   -6.0578   -0.1021 H         1 <0>         0.1059
     36 H2         -4.0773   -4.7942    0.7869 H         1 <0>         0.0788
     37 H3         -3.9975   -4.7416   -0.9905 H         1 <0>         0.0791
     38 H4         -4.4598   -2.7500   -0.0500 H         1 <0>         0.1447
     39 H5         -0.3838   -0.0243    0.2155 H         1 <0>         0.1752
     40 H6          1.0254   -2.0603    0.2058 H         1 <0>         0.1469
     41 H7          3.9508   -5.8125   -1.9349 H         1 <0>         0.1443
     42 H8          4.9461   -6.4531    0.2212 H         1 <0>         0.1464
     43 H9          3.7615   -5.9768    2.3236 H         1 <0>         0.1444
     44 H10        -5.6188   -0.6501   -0.0763 H         1 <0>         0.4211
     45 H11        -6.6694    1.2480    1.2739 H         1 <0>         0.1285
     46 H12        -6.7601    3.6987    1.4757 H         1 <0>         0.1245
     47 H13        -3.1356    4.0179   -0.7705 H         1 <0>         0.1248
     48 H14        -3.0395    1.5666   -0.9637 H         1 <0>         0.1482
     49 H15        -3.3682    6.7288    0.4758 H         1 <0>         0.0866
     50 H16        -3.4775    5.6573   -0.9458 H         1 <0>         0.1263
     51 H17        -4.1293    8.0403   -1.4513 H         1 <0>         0.1404
     52 H18        -5.4373    6.8746   -1.7660 H         1 <0>         0.1320
     53 H19        -7.3973    7.7071    1.1272 H         1 <0>         0.1403
     54 H20        -7.2619    6.6886   -0.3264 H         1 <0>         0.1318
     55 H21        -6.7631    5.3233    1.6345 H         1 <0>         0.1260
     56 H22        -5.5497    6.5071    2.1890 H         1 <0>         0.0862
     57 H23        -6.9619    8.7694   -1.5720 H         1 <0>         0.1213
     58 H24        -7.0068    9.7029   -0.0571 H         1 <0>         0.1248
     59 H25        -5.6109    9.8494   -1.1517 H         1 <0>         0.1250
     60 H26        -5.1383    8.4320    0.7023 H         1 <0>         0.4247
@<TRIPOS>BOND
     1    1    2 1
     2    1   35 1
     3    1   36 1
     4    1   37 1
     5    2   11 am
     6    2    3 1
     7    3    8 ar
     8    3    4 ar
     9    4    5 ar
    10    4   38 1
    11    5    6 ar
    12    5   21 1
    13    6    7 ar
    14    7    8 ar
    15    7   39 1
    16    8    9 1
    17    9   10 2
    18    9   40 1
    19   10   11 1
    20   10   13 1
    21   11   12 2
    22   13   18 ar
    23   13   14 ar
    24   14   15 ar
    25   14   20 1
    26   15   16 ar
    27   15   41 1
    28   16   17 ar
    29   16   42 1
    30   17   18 ar
    31   17   43 1
    32   18   19 1
    33   21   22 1
    34   21   44 1
    35   22   27 ar
    36   22   23 ar
    37   23   24 ar
    38   23   45 1
    39   24   25 ar
    40   24   46 1
    41   25   26 ar
    42   25   28 1
    43   26   27 ar
    44   26   47 1
    45   27   48 1
    46   28   33 1
    47   28   29 1
    48   29   30 1
    49   29   49 1
    50   29   50 1
    51   30   31 1
    52   30   51 1
    53   30   52 1
    54   31   32 1
    55   31   34 1
    56   31   60 1
    57   32   33 1
    58   32   53 1
    59   32   54 1
    60   33   55 1
    61   33   56 1
    62   34   57 1
    63   34   58 1
    64   34   59 1
@<TRIPOS>MOLECULE
CHEMBL104414__1
   59    63     0     0     0
SMALL
USER_CHARGES

@<TRIPOS>ATOM
      1 C1         -3.4525   -4.9994   -0.0767 C.3       1 <0>         0.0599
      2 N1         -2.2283   -4.1982   -0.0013 N.am      1 <0>        -0.5206
      3 C2         -2.3125   -2.8255    0.0392 C.ar      1 <0>         0.2714
      4 C3         -3.5436   -2.1812    0.0098 C.ar      1 <0>        -0.2895
      5 C4         -3.5756   -0.7943    0.0533 C.ar      1 <0>         0.4420
      6 N2         -2.4570   -0.0800    0.1220 N.ar      1 <0>        -0.5443
      7 C5         -1.2681   -0.6410    0.1524 C.ar      1 <0>         0.2310
      8 C6         -1.1442   -2.0355    0.1124 C.ar      1 <0>        -0.2362
      9 C7          0.1269   -2.6561    0.1438 C.2       1 <0>         0.0298
     10 C8          0.2023   -4.0218    0.1022 C.2       1 <0>        -0.1712
     11 C9         -1.0291   -4.8118    0.0334 C.2       1 <0>         0.5533
     12 O1         -0.9688   -6.0281    0.0020 O.2       1 <0>        -0.5147
     13 C10         1.5206   -4.6971    0.1337 C.ar      1 <0>        -0.0065
     14 C11         2.1957   -4.9720   -1.0562 C.ar      1 <0>        -0.0078
     15 C12         3.4243   -5.6018   -1.0198 C.ar      1 <0>        -0.1071
     16 C13         3.9858   -5.9599    0.1926 C.ar      1 <0>        -0.0895
     17 C14         3.3218   -5.6903    1.3758 C.ar      1 <0>        -0.1069
     18 C15         2.0952   -5.0558    1.3537 C.ar      1 <0>        -0.0078
     19 Cl1         1.2668   -4.7118    2.8401 Cl        1 <0>        -0.0507
     20 Cl2         1.4925   -4.5239   -2.5789 Cl        1 <0>        -0.0508
     21 N3         -4.7993   -0.1409    0.0241 N.pl3     1 <0>        -0.6484
     22 C16        -4.8512    1.2538    0.1385 C.ar      1 <0>         0.0883
     23 C17        -5.8963    1.8556    0.8273 C.ar      1 <0>        -0.0944
     24 C18        -5.9472    3.2307    0.9405 C.ar      1 <0>        -0.1836
     25 C19        -4.9534    4.0121    0.3656 C.ar      1 <0>         0.2099
     26 C20        -3.9083    3.4103   -0.3232 C.ar      1 <0>        -0.1832
     27 C21        -3.8546    2.0349   -0.4319 C.ar      1 <0>        -0.0577
     28 N4         -5.0053    5.4059    0.4799 N.pl3     1 <0>        -0.6320
     29 C22        -4.0455    6.2585   -0.2379 C.3       1 <0>         0.1268
     30 C23        -4.8264    7.3284   -1.0085 C.3       1 <0>         0.0385
     31 N5         -5.7187    8.0400   -0.0838 N.3       1 <0>        -0.5426
     32 C24        -6.7240    7.1349    0.4892 C.3       1 <0>         0.0382
     33 C25        -6.0247    6.0573    1.3163 C.3       1 <0>         0.1258
     34 C26        -6.3578    9.1853   -0.7455 C.3       1 <0>         0.0243
     35 H1         -3.1935   -6.0580   -0.0951 H         1 <0>         0.1037
     36 H2         -4.0760   -4.7930    0.7933 H         1 <0>         0.0778
     37 H3         -3.9991   -4.7432   -0.9843 H         1 <0>         0.0780
     38 H4         -4.4599   -2.7501   -0.0463 H         1 <0>         0.1426
     39 H5         -0.3835   -0.0239    0.2081 H         1 <0>         0.1741
     40 H6          1.0257   -2.0599    0.1993 H         1 <0>         0.1450
     41 H7          3.9477   -5.8155   -1.9400 H         1 <0>         0.1429
     42 H8          4.9466   -6.4525    0.2155 H         1 <0>         0.1446
     43 H9          3.7654   -5.9728    2.3191 H         1 <0>         0.1429
     44 H10        -5.6188   -0.6502   -0.0756 H         1 <0>         0.4177
     45 H11        -6.6693    1.2480    1.2740 H         1 <0>         0.1213
     46 H12        -6.7601    3.6987    1.4758 H         1 <0>         0.1242
     47 H13        -3.1357    4.0179   -0.7706 H         1 <0>         0.1242
     48 H14        -3.0395    1.5667   -0.9638 H         1 <0>         0.1413
     49 H15        -3.3756    6.7373    0.4762 H         1 <0>         0.0697
     50 H16        -3.4683    5.6524   -0.9362 H         1 <0>         0.0867
     51 H17        -4.1286    8.0355   -1.4571 H         1 <0>         0.0858
     52 H18        -5.4176    6.8537   -1.7917 H         1 <0>         0.0381
     53 H19        -7.4024    7.7016    1.1268 H         1 <0>         0.0857
     54 H20        -7.2888    6.6629   -0.3148 H         1 <0>         0.0377
     55 H21        -6.7554    5.3183    1.6452 H         1 <0>         0.0862
     56 H22        -5.5488    6.5165    2.1828 H         1 <0>         0.0695
     57 H23        -6.9432    8.8337   -1.5951 H         1 <0>         0.0257
     58 H24        -7.0129    9.6942   -0.0385 H         1 <0>         0.0702
     59 H25        -5.5914    9.8776   -1.0939 H         1 <0>         0.0708
@<TRIPOS>BOND
     1    1    2 1
     2    1   35 1
     3    1   36 1
     4    1   37 1
     5    2   11 am
     6    2    3 1
     7    3    8 ar
     8    3    4 ar
     9    4    5 ar
    10    4   38 1
    11    5    6 ar
    12    5   21 1
    13    6    7 ar
    14    7    8 ar
    15    7   39 1
    16    8    9 1
    17    9   10 2
    18    9   40 1
    19   10   11 1
    20   10   13 1
    21   11   12 2
    22   13   18 ar
    23   13   14 ar
    24   14   15 ar
    25   14   20 1
    26   15   16 ar
    27   15   41 1
    28   16   17 ar
    29   16   42 1
    30   17   18 ar
    31   17   43 1
    32   18   19 1
    33   21   22 1
    34   21   44 1
    35   22   27 ar
    36   22   23 ar
    37   23   24 ar
    38   23   45 1
    39   24   25 ar
    40   24   46 1
    41   25   26 ar
    42   25   28 1
    43   26   27 ar
    44   26   47 1
    45   27   48 1
    46   28   33 1
    47   28   29 1
    48   29   30 1
    49   29   49 1
    50   29   50 1
    51   30   31 1
    52   30   51 1
    53   30   52 1
    54   31   32 1
    55   31   34 1
    56   32   33 1
    57   32   53 1
    58   32   54 1
    59   33   55 1
    60   33   56 1
    61   34   57 1
    62   34   58 1
    63   34   59 1
@<TRIPOS>MOLECULE
CHEMBL432314
   77    80     0     0     0
SMALL
USER_CHARGES

@<TRIPOS>ATOM
      1 C1         -0.6609   -3.6334   -4.2495 C.3       1 <0>        -0.1878
      2 C2         -1.6877   -2.5647   -3.8695 C.3       1 <0>        -0.0172
      3 N1         -1.5198   -2.2052   -2.4551 N.4       1 <0>        -0.3874
      4 C3         -0.2090   -1.5703   -2.2636 C.3       1 <0>        -0.0158
      5 C4          0.0363   -1.3472   -0.7699 C.3       1 <0>        -0.1892
      6 C5         -2.5800   -1.2689   -2.0586 C.3       1 <0>        -0.0059
      7 C6         -3.9351   -1.9763   -2.1222 C.3       1 <0>         0.0267
      8 O1         -3.9611   -3.0423   -1.1708 O.3       1 <0>        -0.3283
      9 C7         -5.0648   -3.8367   -1.1637 C.ar      1 <0>         0.0902
     10 C8         -6.0972   -3.5969   -2.0585 C.ar      1 <0>        -0.1797
     11 C9         -7.2183   -4.4032   -2.0519 C.ar      1 <0>        -0.0739
     12 C10        -7.3119   -5.4542   -1.1492 C.ar      1 <0>         0.1522
     13 C11        -6.2779   -5.6936   -0.2538 C.ar      1 <0>        -0.1075
     14 C12        -5.1550   -4.8899   -0.2654 C.ar      1 <0>        -0.1165
     15 N2         -8.4486   -6.2720   -1.1416 N.pl3     1 <0>        -0.6330
     16 C13        -9.1094   -6.5484   -2.3244 C.ar      1 <0>         0.5860
     17 N3         -8.5792   -6.1182   -3.4674 N.ar      1 <0>        -0.5652
     18 C14        -9.1627   -6.3515   -4.6255 C.ar      1 <0>         0.2613
     19 C15       -10.3699   -7.0713   -4.6350 C.ar      1 <0>        -0.2851
     20 C16       -11.0521   -7.3607   -5.8281 C.ar      1 <0>         0.0452
     21 C17       -12.2358   -8.0763   -5.7426 C.ar      1 <0>        -0.1563
     22 C18       -12.7097   -8.4848   -4.4776 C.ar      1 <0>         0.4879
     23 N4        -12.0518   -8.2007   -3.3722 N.ar      1 <0>        -0.4717
     24 C19       -10.9074   -7.5150   -3.3983 C.ar      1 <0>         0.4296
     25 N5        -10.2369   -7.2323   -2.2744 N.ar      1 <0>        -0.5470
     26 N6        -13.8952   -9.2010   -4.3963 N.am      1 <0>        -0.6586
     27 C20       -14.3614   -9.5984   -3.1959 C.2       1 <0>         0.6923
     28 O2        -13.7432   -9.3294   -2.1842 O.2       1 <0>        -0.5033
     29 N7        -15.5130  -10.2942   -3.1169 N.am      1 <0>        -0.7333
     30 C21       -16.0198  -10.7263   -1.8120 C.3       1 <0>         0.1877
     31 C22       -16.2670   -9.5009   -0.9297 C.3       1 <0>        -0.1660
     32 C23       -17.3313  -11.4909   -2.0020 C.3       1 <0>        -0.1562
     33 C24       -14.9903  -11.6381   -1.1415 C.3       1 <0>        -0.1660
     34 C25       -12.9981   -8.4095   -6.9697 C.ar      1 <0>        -0.0452
     35 C26       -13.9706   -7.5325   -7.4499 C.ar      1 <0>        -0.0128
     36 C27       -14.6775   -7.8488   -8.5937 C.ar      1 <0>        -0.1036
     37 C28       -14.4226   -9.0323   -9.2626 C.ar      1 <0>        -0.0809
     38 C29       -13.4599   -9.9065   -8.7913 C.ar      1 <0>        -0.1036
     39 C30       -12.7418   -9.5988   -7.6521 C.ar      1 <0>        -0.0129
     40 Cl1       -11.5284  -10.6936   -7.0665 Cl        1 <0>        -0.0428
     41 Cl2       -14.2924   -6.0468   -6.6114 Cl        1 <0>        -0.0430
     42 H1         -0.7855   -3.9001   -5.2990 H         1 <0>         0.1065
     43 H2          0.3446   -3.2439   -4.0905 H         1 <0>         0.0809
     44 H3         -0.8103   -4.5175   -3.6297 H         1 <0>         0.0812
     45 H4         -1.5383   -1.6806   -4.4893 H         1 <0>         0.1306
     46 H5         -2.6933   -2.9541   -4.0285 H         1 <0>         0.1288
     47 H6          0.5703   -2.2167   -2.6672 H         1 <0>         0.1334
     48 H7         -0.1904   -0.6116   -2.7819 H         1 <0>         0.1295
     49 H8         -0.7731   -0.7468   -0.3545 H         1 <0>         0.0799
     50 H9          0.0731   -2.3099   -0.2600 H         1 <0>         0.0819
     51 H10         0.9835   -0.8261   -0.6311 H         1 <0>         0.1063
     52 H11        -2.3978   -0.9235   -1.0410 H         1 <0>         0.1437
     53 H12        -2.5835   -0.4156   -2.7368 H         1 <0>         0.1483
     54 H13        -4.7278   -1.2644   -1.8920 H         1 <0>         0.1083
     55 H14        -4.0881   -2.3792   -3.1234 H         1 <0>         0.0854
     56 H15        -6.0244   -2.7792   -2.7602 H         1 <0>         0.1287
     57 H16        -8.0223   -4.2161   -2.7484 H         1 <0>         0.1420
     58 H17        -6.3501   -6.5106    0.4489 H         1 <0>         0.1391
     59 H18        -4.3488   -5.0786    0.4279 H         1 <0>         0.1365
     60 H19        -8.7724   -6.6446   -0.3066 H         1 <0>         0.4296
     61 H20        -8.7236   -5.9974   -5.5465 H         1 <0>         0.1819
     62 H21       -10.6663   -7.0351   -6.7829 H         1 <0>         0.1532
     63 H22       -14.3884   -9.4157   -5.2035 H         1 <0>         0.4132
     64 H23       -16.0063  -10.5089   -3.9241 H         1 <0>         0.3948
     65 H24       -17.0004   -8.8513   -1.4074 H         1 <0>         0.0532
     66 H25       -16.6441   -9.8224    0.0411 H         1 <0>         0.0652
     67 H26       -15.3327   -8.9562   -0.7944 H         1 <0>         0.0804
     68 H27       -17.1552  -12.3638   -2.6305 H         1 <0>         0.0629
     69 H28       -17.7084  -11.8124   -1.0311 H         1 <0>         0.0778
     70 H29       -18.0648  -10.8413   -2.4796 H         1 <0>         0.0629
     71 H30       -14.0560  -11.0934   -1.0062 H         1 <0>         0.0804
     72 H31       -15.3674  -11.9596   -0.1707 H         1 <0>         0.0652
     73 H32       -14.8142  -12.5111   -1.7701 H         1 <0>         0.0532
     74 H33       -15.4310   -7.1707   -8.9663 H         1 <0>         0.1468
     75 H34       -14.9780   -9.2751  -10.1565 H         1 <0>         0.1486
     76 H35       -13.2657  -10.8292   -9.3178 H         1 <0>         0.1468
     77 H36        -1.5765   -3.0375   -1.8875 H         1 <0>         0.4297
@<TRIPOS>BOND
     1    1    2 1
     2    1   42 1
     3    1   43 1
     4    1   44 1
     5    2    3 1
     6    2   45 1
     7    2   46 1
     8    3    4 1
     9    3    6 1
    10    3   77 1
    11    4    5 1
    12    4   47 1
    13    4   48 1
    14    5   49 1
    15    5   50 1
    16    5   51 1
    17    6    7 1
    18    6   52 1
    19    6   53 1
    20    7    8 1
    21    7   54 1
    22    7   55 1
    23    8    9 1
    24    9   14 ar
    25    9   10 ar
    26   10   11 ar
    27   10   56 1
    28   11   12 ar
    29   11   57 1
    30   12   13 ar
    31   12   15 1
    32   13   14 ar
    33   13   58 1
    34   14   59 1
    35   15   16 1
    36   15   60 1
    37   16   25 ar
    38   16   17 ar
    39   17   18 ar
    40   18   19 ar
    41   18   61 1
    42   19   24 ar
    43   19   20 ar
    44   20   21 ar
    45   20   62 1
    46   21   22 ar
    47   21   34 1
    48   22   23 ar
    49   22   26 1
    50   23   24 ar
    51   24   25 ar
    52   26   27 am
    53   26   63 1
    54   27   28 2
    55   27   29 am
    56   29   30 1
    57   29   64 1
    58   30   31 1
    59   30   32 1
    60   30   33 1
    61   31   65 1
    62   31   66 1
    63   31   67 1
    64   32   68 1
    65   32   69 1
    66   32   70 1
    67   33   71 1
    68   33   72 1
    69   33   73 1
    70   34   39 ar
    71   34   35 ar
    72   35   36 ar
    73   35   41 1
    74   36   37 ar
    75   36   74 1
    76   37   38 ar
    77   37   75 1
    78   38   39 ar
    79   38   76 1
    80   39   40 1
@<TRIPOS>MOLECULE
CHEMBL211708
   41    45     0     0     0
SMALL
USER_CHARGES

@<TRIPOS>ATOM
      1 C1         -0.0168    1.3846    0.0097 C.ar      1 <0>        -0.1553
      2 C2          0.0021   -0.0041    0.0020 C.ar      1 <0>        -0.0622
      3 C3         -1.1726   -0.7214    0.0094 C.ar      1 <0>        -0.1454
      4 C4         -2.3924   -0.0492    0.0251 C.ar      1 <0>         0.1276
      5 C5         -2.4060    1.3573    0.0332 C.ar      1 <0>        -0.1423
      6 C6         -1.2016    2.0634    0.0303 C.ar      1 <0>        -0.0260
      7 C7         -3.8190    1.7554    0.0485 C.2       1 <0>         0.1608
      8 N1         -4.5388    0.6573    0.0488 N.2       1 <0>        -0.2307
      9 H1         -3.9977   -1.3855    0.0322 H         1 <0>         0.4460
     10 N2         -3.7007   -0.4621    0.0348 N.pl3     1 <0>        -0.4937
     11 C8         -4.3362    3.1381    0.0611 C.2       1 <0>         0.3486
     12 N3         -5.6623    3.4845    0.0807 N.pl3     1 <0>        -0.5860
     13 H2         -6.4166    2.8747    0.0889 H         1 <0>         0.4285
     14 C9         -5.7235    4.8649    0.0871 C.ar      1 <0>         0.0655
     15 C10        -6.7676    5.7810    0.1055 C.ar      1 <0>        -0.1175
     16 C11        -6.4983    7.1334    0.1076 C.ar      1 <0>        -0.0849
     17 C12        -5.1891    7.5913    0.0914 C.ar      1 <0>        -0.1364
     18 C13        -4.1344    6.6974    0.0729 C.ar      1 <0>         0.2319
     19 C14        -4.3939    5.3167    0.0706 C.ar      1 <0>         0.0425
     20 N4         -3.5966    4.2208    0.0610 N.2       1 <0>        -0.4420
     21 N5         -2.8186    7.1644    0.0572 N.pl3     1 <0>        -0.6728
     22 C15        -2.1240    7.4294   -1.2127 C.3       1 <0>         0.1146
     23 C16        -1.5174    8.8358   -1.1478 C.3       1 <0>         0.0465
     24 O1         -0.7335    8.9558    0.0417 O.3       1 <0>        -0.3810
     25 C17        -1.4810    8.8141    1.2521 C.3       1 <0>         0.0465
     26 C18        -2.0876    7.4120    1.3101 C.3       1 <0>         0.1146
     27 H3          0.9139    1.9325    0.0037 H         1 <0>         0.1313
     28 H4          0.9475   -0.5261   -0.0102 H         1 <0>         0.1337
     29 H5         -1.1486   -1.8011    0.0026 H         1 <0>         0.1301
     30 H6         -1.2070    3.1434    0.0365 H         1 <0>         0.1413
     31 H7         -7.7902    5.4341    0.1178 H         1 <0>         0.1264
     32 H8         -7.3134    7.8418    0.1215 H         1 <0>         0.1349
     33 H9         -4.9922    8.6532    0.0929 H         1 <0>         0.1307
     34 H10        -1.3323    6.6945   -1.3584 H         1 <0>         0.0607
     35 H11        -2.8338    7.3735   -2.0380 H         1 <0>         0.0760
     36 H12        -0.8839    8.9996   -2.0195 H         1 <0>         0.0988
     37 H13        -2.3168    9.5767   -1.1333 H         1 <0>         0.0518
     38 H14        -0.8212    8.9624    2.1069 H         1 <0>         0.0991
     39 H15        -2.2802    9.5549    1.2753 H         1 <0>         0.0514
     40 H16        -2.7733    7.3446    2.1547 H         1 <0>         0.0760
     41 H17        -1.2921    6.6753    1.4227 H         1 <0>         0.0603
@<TRIPOS>BOND
     1    1    2 ar
     2    1   27 1
     3    1    6 ar
     4    2    3 ar
     5    2   28 1
     6    3    4 ar
     7    3   29 1
     8    4   10 1
     9    4    5 ar
    10    5    6 ar
    11    5    7 1
    12    6   30 1
    13    7    8 2
    14    7   11 1
    15    8   10 1
    16    9   10 1
    17   11   20 2
    18   11   12 1
    19   12   13 1
    20   12   14 1
    21   14   19 ar
    22   14   15 ar
    23   15   16 ar
    24   15   31 1
    25   16   17 ar
    26   16   32 1
    27   17   18 ar
    28   17   33 1
    29   18   19 ar
    30   18   21 1
    31   19   20 1
    32   21   26 1
    33   21   22 1
    34   22   23 1
    35   22   34 1
    36   22   35 1
    37   23   24 1
    38   23   36 1
    39   23   37 1
    40   24   25 1
    41   25   26 1
    42   25   38 1
    43   25   39 1
    44   26   40 1
    45   26   41 1
@<TRIPOS>MOLECULE
CHEMBL108332
   65    68     0     0     0
SMALL
USER_CHARGES

@<TRIPOS>ATOM
      1 C1         -0.0178    1.4608    0.0101 C.3       1 <0>         0.0614
      2 N1          0.0021   -0.0041    0.0020 N.am      1 <0>        -0.5215
      3 C2         -1.1832   -0.7026    0.0039 C.ar      1 <0>         0.2713
      4 C3         -2.4056   -0.0412    0.0132 C.ar      1 <0>        -0.2970
      5 C4         -3.5734   -0.7908    0.0143 C.ar      1 <0>         0.4442
      6 N2         -3.5407   -2.1192    0.0065 N.ar      1 <0>        -0.5579
      7 C5         -2.4109   -2.7924   -0.0026 C.ar      1 <0>         0.2353
      8 C6         -1.1855   -2.1147   -0.0043 C.ar      1 <0>        -0.2366
      9 C7          0.0397   -2.8227   -0.0135 C.2       1 <0>         0.0274
     10 C8          1.2142   -2.1207   -0.0144 C.2       1 <0>        -0.1669
     11 C9          1.1810   -0.6564   -0.0127 C.2       1 <0>         0.5527
     12 O1          2.2233   -0.0259   -0.0189 O.2       1 <0>        -0.5119
     13 C10         2.5110   -2.8371   -0.0239 C.ar      1 <0>        -0.0098
     14 C11         3.1266   -3.1880    1.1783 C.ar      1 <0>        -0.0076
     15 C12         4.3355   -3.8557    1.1624 C.ar      1 <0>        -0.1062
     16 C13         4.9362   -4.1763   -0.0417 C.ar      1 <0>        -0.0878
     17 C14         4.3313   -3.8315   -1.2369 C.ar      1 <0>        -0.1062
     18 C15         3.1193   -3.1691   -1.2351 C.ar      1 <0>        -0.0075
     19 Cl1         2.3582   -2.7435   -2.7362 Cl        1 <0>        -0.0519
     20 Cl2         2.3749   -2.7855    2.6904 Cl        1 <0>        -0.0514
     21 N3         -4.7988   -0.1407    0.0241 N.pl3     1 <0>        -0.7173
     22 C16        -4.8513    1.3233    0.0332 C.3       1 <0>         0.1233
     23 C17        -6.3112    1.7812    0.0430 C.3       1 <0>        -0.1304
     24 C18        -6.3660    3.3102    0.0525 C.3       1 <0>        -0.1169
     25 C19        -7.8258    3.7681    0.0622 C.3       1 <0>        -0.1172
     26 C20        -7.8806    5.2971    0.0718 C.3       1 <0>         0.0535
     27 N4         -9.2823    5.7368    0.0811 N.3       1 <0>        -0.5402
     28 C21        -9.9559    5.3758   -1.1743 C.3       1 <0>         0.0206
     29 C22       -11.4252    5.7970   -1.1006 C.3       1 <0>        -0.0030
     30 N5        -11.5087    7.2467   -0.8793 N.4       1 <0>        -0.3884
     31 C23       -10.8533    7.5885    0.3899 C.3       1 <0>        -0.0027
     32 C24        -9.3792    7.1823    0.3287 C.3       1 <0>         0.0247
     33 C25       -12.9194    7.6532   -0.8267 C.3       1 <0>        -0.0459
     34 H1          1.0048    1.8381    0.0023 H         1 <0>         0.1043
     35 H2         -0.5450    1.8219   -0.8730 H         1 <0>         0.0757
     36 H3         -0.5280    1.8123    0.9069 H         1 <0>         0.0762
     37 H4         -2.4459    1.0381    0.0200 H         1 <0>         0.1400
     38 H5         -2.4284   -3.8722   -0.0087 H         1 <0>         0.1747
     39 H6          0.0476   -3.9026   -0.0194 H         1 <0>         0.1460
     40 H7          4.8130   -4.1278    2.0921 H         1 <0>         0.1438
     41 H8          5.8819   -4.6979   -0.0486 H         1 <0>         0.1458
     42 H9          4.8055   -4.0847   -2.1736 H         1 <0>         0.1437
     43 H10        -5.6209   -0.6556    0.0249 H         1 <0>         0.4089
     44 H11        -4.3466    1.6994    0.9231 H         1 <0>         0.0673
     45 H12        -4.3551    1.7102   -0.8568 H         1 <0>         0.0663
     46 H13        -6.8159    1.4051   -0.8469 H         1 <0>         0.0721
     47 H14        -6.8074    1.3943    0.9330 H         1 <0>         0.0745
     48 H15        -5.8613    3.6863    0.9424 H         1 <0>         0.0712
     49 H16        -5.8698    3.6971   -0.8375 H         1 <0>         0.0676
     50 H17        -8.3305    3.3920   -0.8276 H         1 <0>         0.0642
     51 H18        -8.3220    3.3812    0.9523 H         1 <0>         0.0777
     52 H19        -7.3759    5.6732    0.9617 H         1 <0>         0.0895
     53 H20        -7.3844    5.6840   -0.8182 H         1 <0>         0.0473
     54 H21        -9.4723    5.8872   -2.0066 H         1 <0>         0.0605
     55 H22        -9.8936    4.2979   -1.3236 H         1 <0>         0.1252
     56 H23       -11.9233    5.5430   -2.0363 H         1 <0>         0.1356
     57 H24       -11.9119    5.2751   -0.2767 H         1 <0>         0.1375
     58 H25       -10.9274    8.6628    0.5593 H         1 <0>         0.1360
     59 H26       -11.3429    7.0575    1.2062 H         1 <0>         0.1377
     60 H27        -8.8962    7.4223    1.2758 H         1 <0>         0.1236
     61 H28        -8.8861    7.7234   -0.4789 H         1 <0>         0.0604
     62 H29       -13.4176    7.1316   -0.0096 H         1 <0>         0.1233
     63 H30       -12.9815    8.7290   -0.6626 H         1 <0>         0.1245
     64 H31       -13.4056    7.4008   -1.7691 H         1 <0>         0.1244
     65 H32       -11.0480    7.7293   -1.6362 H         1 <0>         0.4224
@<TRIPOS>BOND
     1    1    2 1
     2    1   34 1
     3    1   35 1
     4    1   36 1
     5    2   11 am
     6    2    3 1
     7    3    8 ar
     8    3    4 ar
     9    4    5 ar
    10    4   37 1
    11    5    6 ar
    12    5   21 1
    13    6    7 ar
    14    7    8 ar
    15    7   38 1
    16    8    9 1
    17    9   10 2
    18    9   39 1
    19   10   11 1
    20   10   13 1
    21   11   12 2
    22   13   18 ar
    23   13   14 ar
    24   14   15 ar
    25   14   20 1
    26   15   16 ar
    27   15   40 1
    28   16   17 ar
    29   16   41 1
    30   17   18 ar
    31   17   42 1
    32   18   19 1
    33   21   22 1
    34   21   43 1
    35   22   23 1
    36   22   44 1
    37   22   45 1
    38   23   24 1
    39   23   46 1
    40   23   47 1
    41   24   25 1
    42   24   48 1
    43   24   49 1
    44   25   26 1
    45   25   50 1
    46   25   51 1
    47   26   27 1
    48   26   52 1
    49   26   53 1
    50   27   32 1
    51   27   28 1
    52   28   29 1
    53   28   54 1
    54   28   55 1
    55   29   30 1
    56   29   56 1
    57   29   57 1
    58   30   31 1
    59   30   33 1
    60   30   65 1
    61   31   32 1
    62   31   58 1
    63   31   59 1
    64   32   60 1
    65   32   61 1
    66   33   62 1
    67   33   63 1
    68   33   64 1
@<TRIPOS>MOLECULE
CHEMBL108332__1
   65    68     0     0     0
SMALL
USER_CHARGES

@<TRIPOS>ATOM
      1 C1         -0.0178    1.4608    0.0101 C.3       1 <0>         0.0615
      2 N1          0.0021   -0.0041    0.0020 N.am      1 <0>        -0.5217
      3 C2         -1.1832   -0.7026    0.0039 C.ar      1 <0>         0.2711
      4 C3         -2.4056   -0.0412    0.0132 C.ar      1 <0>        -0.2963
      5 C4         -3.5734   -0.7908    0.0143 C.ar      1 <0>         0.4428
      6 N2         -3.5407   -2.1192    0.0065 N.ar      1 <0>        -0.5574
      7 C5         -2.4109   -2.7924   -0.0026 C.ar      1 <0>         0.2354
      8 C6         -1.1855   -2.1147   -0.0043 C.ar      1 <0>        -0.2338
      9 C7          0.0397   -2.8227   -0.0135 C.2       1 <0>         0.0252
     10 C8          1.2142   -2.1207   -0.0144 C.2       1 <0>        -0.1634
     11 C9          1.1810   -0.6564   -0.0127 C.2       1 <0>         0.5523
     12 O1          2.2233   -0.0259   -0.0189 O.2       1 <0>        -0.5099
     13 C10         2.5110   -2.8371   -0.0239 C.ar      1 <0>        -0.0116
     14 C11         3.1266   -3.1880    1.1783 C.ar      1 <0>        -0.0074
     15 C12         4.3355   -3.8557    1.1624 C.ar      1 <0>        -0.1059
     16 C13         4.9362   -4.1763   -0.0417 C.ar      1 <0>        -0.0870
     17 C14         4.3313   -3.8315   -1.2369 C.ar      1 <0>        -0.1059
     18 C15         3.1193   -3.1691   -1.2351 C.ar      1 <0>        -0.0072
     19 Cl1         2.3582   -2.7435   -2.7362 Cl        1 <0>        -0.0517
     20 Cl2         2.3749   -2.7855    2.6904 Cl        1 <0>        -0.0517
     21 N3         -4.7988   -0.1407    0.0241 N.pl3     1 <0>        -0.7195
     22 C16        -4.8513    1.3233    0.0332 C.3       1 <0>         0.1241
     23 C17        -6.3112    1.7812    0.0430 C.3       1 <0>        -0.1329
     24 C18        -6.3660    3.3102    0.0525 C.3       1 <0>        -0.1140
     25 C19        -7.8258    3.7681    0.0622 C.3       1 <0>        -0.1487
     26 C20        -7.8806    5.2971    0.0718 C.3       1 <0>        -0.0094
     27 N4         -9.2823    5.7368    0.0811 N.4       1 <0>        -0.3870
     28 C21        -9.9308    5.3308   -1.1727 C.3       1 <0>        -0.0063
     29 C22       -11.3960    5.7721   -1.1555 C.3       1 <0>         0.0243
     30 N5        -11.4632    7.2320   -0.9993 N.3       1 <0>        -0.5439
     31 C23       -10.7958    7.6557    0.2397 C.3       1 <0>         0.0238
     32 C24        -9.3356    7.1989    0.2110 C.3       1 <0>        -0.0021
     33 C25       -12.8546    7.7018   -1.0351 C.3       1 <0>         0.0192
     34 H1          1.0048    1.8381    0.0023 H         1 <0>         0.1048
     35 H2         -0.5450    1.8219   -0.8730 H         1 <0>         0.0755
     36 H3         -0.5280    1.8123    0.9069 H         1 <0>         0.0757
     37 H4         -2.4459    1.0381    0.0200 H         1 <0>         0.1395
     38 H5         -2.4284   -3.8722   -0.0087 H         1 <0>         0.1754
     39 H6          0.0476   -3.9026   -0.0194 H         1 <0>         0.1468
     40 H7          4.8130   -4.1278    2.0921 H         1 <0>         0.1441
     41 H8          5.8819   -4.6979   -0.0486 H         1 <0>         0.1462
     42 H9          4.8055   -4.0847   -2.1736 H         1 <0>         0.1441
     43 H10        -5.6209   -0.6556    0.0249 H         1 <0>         0.4091
     44 H11        -4.3466    1.6994    0.9231 H         1 <0>         0.0678
     45 H12        -4.3551    1.7102   -0.8568 H         1 <0>         0.0679
     46 H13        -6.8159    1.4051   -0.8469 H         1 <0>         0.0767
     47 H14        -6.8074    1.3943    0.9330 H         1 <0>         0.0767
     48 H15        -5.8613    3.6863    0.9424 H         1 <0>         0.0791
     49 H16        -5.8698    3.6971   -0.8375 H         1 <0>         0.0793
     50 H17        -8.3305    3.3920   -0.8276 H         1 <0>         0.0886
     51 H18        -8.3220    3.3812    0.9523 H         1 <0>         0.0879
     52 H19        -7.3759    5.6732    0.9617 H         1 <0>         0.1322
     53 H20        -7.3844    5.6840   -0.8182 H         1 <0>         0.1318
     54 H21        -9.4202    5.7993   -2.0141 H         1 <0>         0.1381
     55 H22        -9.8791    4.2468   -1.2741 H         1 <0>         0.1363
     56 H23       -11.8736    5.4841   -2.0920 H         1 <0>         0.1238
     57 H24       -11.9103    5.2932   -0.3222 H         1 <0>         0.0603
     58 H25       -10.8355    8.7419    0.3211 H         1 <0>         0.1242
     59 H26       -11.3002    7.2078    1.0959 H         1 <0>         0.0604
     60 H27        -8.8426    7.4998    1.1354 H         1 <0>         0.1361
     61 H28        -8.8280    7.6577   -0.6375 H         1 <0>         0.1379
     62 H29       -13.4158    7.2374   -0.2242 H         1 <0>         0.0398
     63 H30       -12.8754    8.7852   -0.9174 H         1 <0>         0.0843
     64 H31       -13.3050    7.4313   -1.9901 H         1 <0>         0.0847
     65 H32        -9.7625    5.3124    0.8605 H         1 <0>         0.4202
@<TRIPOS>BOND
     1    1    2 1
     2    1   34 1
     3    1   35 1
     4    1   36 1
     5    2   11 am
     6    2    3 1
     7    3    8 ar
     8    3    4 ar
     9    4    5 ar
    10    4   37 1
    11    5    6 ar
    12    5   21 1
    13    6    7 ar
    14    7    8 ar
    15    7   38 1
    16    8    9 1
    17    9   10 2
    18    9   39 1
    19   10   11 1
    20   10   13 1
    21   11   12 2
    22   13   18 ar
    23   13   14 ar
    24   14   15 ar
    25   14   20 1
    26   15   16 ar
    27   15   40 1
    28   16   17 ar
    29   16   41 1
    30   17   18 ar
    31   17   42 1
    32   18   19 1
    33   21   22 1
    34   21   43 1
    35   22   23 1
    36   22   44 1
    37   22   45 1
    38   23   24 1
    39   23   46 1
    40   23   47 1
    41   24   25 1
    42   24   48 1
    43   24   49 1
    44   25   26 1
    45   25   50 1
    46   25   51 1
    47   26   27 1
    48   26   52 1
    49   26   53 1
    50   27   32 1
    51   27   28 1
    52   27   65 1
    53   28   29 1
    54   28   54 1
    55   28   55 1
    56   29   30 1
    57   29   56 1
    58   29   57 1
    59   30   31 1
    60   30   33 1
    61   31   32 1
    62   31   58 1
    63   31   59 1
    64   32   60 1
    65   32   61 1
    66   33   62 1
    67   33   63 1
    68   33   64 1
@<TRIPOS>MOLECULE
CHEMBL1421
   60    63     0     0     0
SMALL
USER_CHARGES

@<TRIPOS>ATOM
      1 C1         -2.0700    1.6928    0.2333 C.3       1 <0>        -0.1170
      2 C2         -1.6482    0.2604    0.0301 C.ar      1 <0>        -0.0813
      3 C3         -1.8479   -0.3525   -1.1919 C.ar      1 <0>        -0.1034
      4 C4         -1.4615   -1.6665   -1.3798 C.ar      1 <0>        -0.0990
      5 C5         -0.8738   -2.3725   -0.3459 C.ar      1 <0>        -0.1046
      6 C6         -0.6714   -1.7660    0.8791 C.ar      1 <0>        -0.0220
      7 C7         -1.0534   -0.4428    1.0688 C.ar      1 <0>         0.1347
      8 N1         -0.8441    0.1769    2.3055 N.am      1 <0>        -0.6659
      9 C8         -1.2819   -0.4110    3.4365 C.2       1 <0>         0.6018
     10 O1         -1.7689   -1.5261    3.3939 O.2       1 <0>        -0.4722
     11 C9         -1.1720    0.2905    4.7149 C.2       1 <0>        -0.2635
     12 C10        -1.5472   -0.1201    5.9866 C.2       1 <0>         0.1512
     13 N2         -1.3262    0.7270    6.9599 N.2       1 <0>        -0.5510
     14 C11        -0.7756    1.9070    6.7361 C.2       1 <0>         0.2513
     15 S1         -0.5107    1.9100    5.0742 S.3       1 <0>         0.2445
     16 N3         -0.4817    2.8997    7.6498 N.pl3     1 <0>        -0.5870
     17 C12        -0.6908    2.6801    9.0050 C.ar      1 <0>         0.4543
     18 C13        -1.0534    1.4192    9.4679 C.ar      1 <0>        -0.2926
     19 C14        -1.2512    1.2508   10.8352 C.ar      1 <0>         0.4935
     20 N4         -1.0875    2.2952   11.6453 N.ar      1 <0>        -0.5328
     21 C15        -0.7435    3.4737   11.1677 C.ar      1 <0>         0.4541
     22 N5         -0.5417    3.6719    9.8809 N.ar      1 <0>        -0.5672
     23 C16        -0.5694    4.6273   12.1217 C.3       1 <0>        -0.1251
     24 N6         -1.6138    0.0143   11.3464 N.pl3     1 <0>        -0.5370
     25 C17        -2.0559   -0.1253   12.7422 C.3       1 <0>         0.1090
     26 C18        -3.3866   -0.8852   12.7576 C.3       1 <0>         0.0383
     27 N7         -3.2335   -2.1493   12.0251 N.3       1 <0>        -0.5289
     28 C19        -2.9165   -1.9105   10.6107 C.3       1 <0>         0.0343
     29 C20        -1.5725   -1.1917   10.5056 C.3       1 <0>         0.1057
     30 C21        -4.4334   -2.9856   12.1619 C.3       1 <0>         0.0545
     31 C22        -4.1483   -4.3816   11.6043 C.3       1 <0>         0.0776
     32 O2         -3.1500   -5.0191   12.4038 O.3       1 <0>        -0.5606
     33 Cl1         0.0658   -2.6526    2.1768 Cl        1 <0>        -0.0453
     34 H1         -1.2464    2.3553   -0.0328 H         1 <0>         0.0773
     35 H2         -2.9308    1.9112   -0.3987 H         1 <0>         0.0785
     36 H3         -2.3379    1.8478    1.2784 H         1 <0>         0.0640
     37 H4         -2.3069    0.1956   -2.0014 H         1 <0>         0.1372
     38 H5         -1.6193   -2.1430   -2.3361 H         1 <0>         0.1391
     39 H6         -0.5731   -3.3989   -0.4959 H         1 <0>         0.1403
     40 H7         -0.3838    1.0296    2.3489 H         1 <0>         0.4083
     41 H8         -1.9972   -1.0858    6.1634 H         1 <0>         0.2027
     42 H9         -0.1293    3.7505    7.3451 H         1 <0>         0.4460
     43 H10        -1.1784    0.5927    8.7841 H         1 <0>         0.2218
     44 H11         0.4644    4.6619   12.4652 H         1 <0>         0.1245
     45 H12        -0.8146    5.5596   11.6130 H         1 <0>         0.1071
     46 H13        -1.2322    4.4948   12.9768 H         1 <0>         0.1273
     47 H14        -1.3096   -0.6823   13.3087 H         1 <0>         0.0989
     48 H15        -2.1929    0.8619   13.1834 H         1 <0>         0.1094
     49 H16        -3.6740   -1.0944   13.7880 H         1 <0>         0.1036
     50 H17        -4.1569   -0.2794   12.2806 H         1 <0>         0.0428
     51 H18        -2.8631   -2.8634   10.0841 H         1 <0>         0.1043
     52 H19        -3.6935   -1.2904   10.1636 H         1 <0>         0.0450
     53 H20        -1.3900   -0.9091    9.4688 H         1 <0>         0.1029
     54 H21        -0.7788   -1.8532   10.8529 H         1 <0>         0.1042
     55 H22        -4.7041   -3.0633   13.2149 H         1 <0>         0.0912
     56 H23        -5.2561   -2.5340   11.6075 H         1 <0>         0.0533
     57 H24        -5.0627   -4.9745   11.6240 H         1 <0>         0.0547
     58 H25        -3.7921   -4.2970   10.5776 H         1 <0>         0.0454
     59 H26        -2.9188   -5.9101   12.1076 H         1 <0>         0.3805
     60 H27        -0.2852    4.5531    9.5669 H         1 <0>         0.4414
@<TRIPOS>BOND
     1    1    2 1
     2    1   34 1
     3    1   35 1
     4    1   36 1
     5    2    7 ar
     6    2    3 ar
     7    3    4 ar
     8    3   37 1
     9    4    5 ar
    10    4   38 1
    11    5    6 ar
    12    5   39 1
    13    6    7 ar
    14    6   33 1
    15    7    8 1
    16    8    9 am
    17    8   40 1
    18    9   10 2
    19    9   11 1
    20   11   15 1
    21   11   12 2
    22   12   13 1
    23   12   41 1
    24   13   14 2
    25   14   15 1
    26   14   16 1
    27   16   17 1
    28   16   42 1
    29   17   22 ar
    30   17   18 ar
    31   18   19 ar
    32   18   43 1
    33   19   20 ar
    34   19   24 1
    35   20   21 ar
    36   21   22 ar
    37   21   23 1
    38   22   60 1
    39   23   44 1
    40   23   45 1
    41   23   46 1
    42   24   29 1
    43   24   25 1
    44   25   26 1
    45   25   47 1
    46   25   48 1
    47   26   27 1
    48   26   49 1
    49   26   50 1
    50   27   28 1
    51   27   30 1
    52   28   29 1
    53   28   51 1
    54   28   52 1
    55   29   53 1
    56   29   54 1
    57   30   31 1
    58   30   55 1
    59   30   56 1
    60   31   32 1
    61   31   57 1
    62   31   58 1
    63   32   59 1
@<TRIPOS>MOLECULE
CHEMBL1421__1
   60    63     0     0     0
SMALL
USER_CHARGES

@<TRIPOS>ATOM
      1 C1          3.4124    6.6512    1.8897 C.3       1 <0>        -0.1163
      2 C2          2.6920    7.9714    1.9854 C.ar      1 <0>        -0.0843
      3 C3          3.0121    8.9981    1.1182 C.ar      1 <0>        -0.1045
      4 C4          2.3522   10.2099    1.2048 C.ar      1 <0>        -0.1038
      5 C5          1.3694   10.3990    2.1594 C.ar      1 <0>        -0.1055
      6 C6          1.0444    9.3766    3.0303 C.ar      1 <0>        -0.0236
      7 C7          1.7022    8.1551    2.9413 C.ar      1 <0>         0.1417
      8 N1          1.3714    7.1153    3.8168 N.am      1 <0>        -0.6710
      9 C8          1.3553    7.3335    5.1467 C.2       1 <0>         0.6087
     10 O1          1.5292    8.4574    5.5814 O.2       1 <0>        -0.4836
     11 C9          1.1291    6.2203    6.0676 C.2       1 <0>        -0.2919
     12 C10         1.0670    6.2153    7.4542 C.2       1 <0>         0.1635
     13 N2          0.8483    5.0563    8.0223 N.2       1 <0>        -0.5133
     14 C11         0.6959    3.9554    7.3079 C.2       1 <0>         0.2908
     15 S1          0.8482    4.4913    5.7199 S.3       1 <0>         0.1520
     16 N3          0.4615    2.6710    7.7573 N.pl3     1 <0>        -0.5898
     17 C12         0.2513    2.4361    9.1097 C.ar      1 <0>         0.4534
     18 C13        -0.0954    1.1662    9.5600 C.ar      1 <0>        -0.3376
     19 C14        -0.2952    0.9826   10.9250 C.ar      1 <0>         0.4607
     20 N4         -0.1485    2.0216   11.7451 N.ar      1 <0>        -0.5908
     21 C15         0.1808    3.2091   11.2794 C.ar      1 <0>         0.4046
     22 N5          0.3838    3.4218    9.9951 N.ar      1 <0>        -0.5314
     23 C16         0.3360    4.3561   12.2444 C.3       1 <0>        -0.0894
     24 N6         -0.6424   -0.2634   11.4237 N.pl3     1 <0>        -0.6179
     25 C17        -1.0594   -0.4281   12.8248 C.3       1 <0>         0.1046
     26 C18        -2.3757   -1.2120   12.8509 C.3       1 <0>        -0.0221
     27 N7         -2.2083   -2.4723   12.1163 N.4       1 <0>        -0.3823
     28 C19        -1.9425   -2.1937   10.6993 C.3       1 <0>        -0.0268
     29 C20        -0.6101   -1.4576   10.5651 C.3       1 <0>         0.1016
     30 C21        -3.4346   -3.2724   12.2345 C.3       1 <0>        -0.0056
     31 C22        -3.2188   -4.6367   11.5764 C.3       1 <0>         0.0448
     32 O2         -2.2227   -5.3623   12.2999 O.3       1 <0>        -0.5801
     33 Cl1        -0.1888    9.6145    4.2287 Cl        1 <0>        -0.0445
     34 H1          2.8800    5.9959    1.2003 H         1 <0>         0.0756
     35 H2          4.4261    6.8160    1.5246 H         1 <0>         0.0766
     36 H3          3.4521    6.1867    2.8750 H         1 <0>         0.0659
     37 H4          3.7793    8.8541    0.3718 H         1 <0>         0.1351
     38 H5          2.6049   11.0108    0.5257 H         1 <0>         0.1369
     39 H6          0.8557   11.3468    2.2245 H         1 <0>         0.1384
     40 H7          1.1536    6.2373    3.4667 H         1 <0>         0.4079
     41 H8          1.1926    7.1184    8.0330 H         1 <0>         0.1916
     42 H9          0.4436    1.9328    7.1283 H         1 <0>         0.4399
     43 H10        -0.2069    0.3443    8.8682 H         1 <0>         0.1428
     44 H11         1.3682    4.4018   12.5916 H         1 <0>         0.0928
     45 H12         0.0795    5.2896   11.7434 H         1 <0>         0.0949
     46 H13        -0.3276    4.2067   13.0961 H         1 <0>         0.0877
     47 H14        -0.2944   -0.9785   13.3724 H         1 <0>         0.0917
     48 H15        -1.2071    0.5511   13.2804 H         1 <0>         0.1402
     49 H16        -2.6503   -1.4269   13.8836 H         1 <0>         0.1447
     50 H17        -3.1610   -0.6193   12.3817 H         1 <0>         0.1326
     51 H18        -1.8978   -3.1321   10.1466 H         1 <0>         0.1433
     52 H19        -2.7409   -1.5714   10.2952 H         1 <0>         0.1343
     53 H20        -0.4609   -1.1588    9.5276 H         1 <0>         0.1286
     54 H21         0.2011   -2.1137   10.8807 H         1 <0>         0.0966
     55 H22        -3.6776   -3.4115   13.2880 H         1 <0>         0.1407
     56 H23        -4.2553   -2.7551   11.7376 H         1 <0>         0.1422
     57 H24        -4.1541   -5.1964   11.5852 H         1 <0>         0.0964
     58 H25        -2.8895   -4.4955   10.5470 H         1 <0>         0.0713
     59 H26        -2.0341   -6.2389   11.9379 H         1 <0>         0.4101
     60 H27        -1.4342   -2.9879   12.5075 H         1 <0>         0.4311
@<TRIPOS>BOND
     1    1    2 1
     2    1   34 1
     3    1   35 1
     4    1   36 1
     5    2    7 ar
     6    2    3 ar
     7    3    4 ar
     8    3   37 1
     9    4    5 ar
    10    4   38 1
    11    5    6 ar
    12    5   39 1
    13    6    7 ar
    14    6   33 1
    15    7    8 1
    16    8    9 am
    17    8   40 1
    18    9   10 2
    19    9   11 1
    20   11   15 1
    21   11   12 2
    22   12   13 1
    23   12   41 1
    24   13   14 2
    25   14   15 1
    26   14   16 1
    27   16   17 1
    28   16   42 1
    29   17   22 ar
    30   17   18 ar
    31   18   19 ar
    32   18   43 1
    33   19   20 ar
    34   19   24 1
    35   20   21 ar
    36   21   22 ar
    37   21   23 1
    38   23   44 1
    39   23   45 1
    40   23   46 1
    41   24   29 1
    42   24   25 1
    43   25   26 1
    44   25   47 1
    45   25   48 1
    46   26   27 1
    47   26   49 1
    48   26   50 1
    49   27   28 1
    50   27   30 1
    51   27   60 1
    52   28   29 1
    53   28   51 1
    54   28   52 1
    55   29   53 1
    56   29   54 1
    57   30   31 1
    58   30   55 1
    59   30   56 1
    60   31   32 1
    61   31   57 1
    62   31   58 1
    63   32   59 1
@<TRIPOS>MOLECULE
CHEMBL1421__2
   61    64     0     0     0
SMALL
USER_CHARGES

@<TRIPOS>ATOM
      1 C1          3.2770    6.6581    1.8427 C.3       1 <0>        -0.1166
      2 C2          2.5837    7.9904    1.9667 C.ar      1 <0>        -0.0814
      3 C3          2.9012    9.0183    1.0999 C.ar      1 <0>        -0.1028
      4 C4          2.2660   10.2411    1.2125 C.ar      1 <0>        -0.0975
      5 C5          1.3108   10.4402    2.1928 C.ar      1 <0>        -0.1039
      6 C6          0.9888    9.4167    3.0634 C.ar      1 <0>        -0.0218
      7 C7          1.6215    8.1842    2.9485 C.ar      1 <0>         0.1327
      8 N1          1.2933    7.1433    3.8237 N.am      1 <0>        -0.6648
      9 C8          1.3141    7.3507    5.1552 C.2       1 <0>         0.5983
     10 O1          1.5193    8.4677    5.5943 O.2       1 <0>        -0.4690
     11 C9          1.0903    6.2342    6.0727 C.2       1 <0>        -0.2500
     12 C10         1.0624    6.2188    7.4604 C.2       1 <0>         0.1439
     13 N2          0.8362    5.0594    8.0246 N.2       1 <0>        -0.4984
     14 C11         0.6458    3.9675    7.3056 C.2       1 <0>         0.2172
     15 S1          0.7692    4.5136    5.7185 S.3       1 <0>         0.2242
     16 N3          0.3986    2.6839    7.7506 N.pl3     1 <0>        -0.5513
     17 C12         0.2203    2.4413    9.1063 C.ar      1 <0>         0.5098
     18 C13        -0.1335    1.1734    9.5556 C.ar      1 <0>        -0.3097
     19 C14        -0.3003    0.9817   10.9244 C.ar      1 <0>         0.4927
     20 N4         -0.1163    2.0116   11.7481 N.ar      1 <0>        -0.5695
     21 C15         0.2187    3.1980   11.2828 C.ar      1 <0>         0.4589
     22 N5          0.3911    3.4178    9.9956 N.ar      1 <0>        -0.4762
     23 C16         0.4165    4.3348   12.2521 C.3       1 <0>        -0.1303
     24 N6         -0.6531   -0.2629   11.4224 N.pl3     1 <0>        -0.6123
     25 C17        -0.9643   -0.4465   12.8484 C.3       1 <0>         0.0782
     26 C18        -2.3027   -1.1838   12.9625 C.3       1 <0>        -0.0204
     27 N7         -2.2406   -2.4311   12.1903 N.4       1 <0>        -0.3852
     28 C19        -2.0770   -2.1279   10.7629 C.3       1 <0>        -0.0304
     29 C20        -0.7330   -1.4363   10.5388 C.3       1 <0>         0.0932
     30 C21        -3.4827   -3.1900   12.3886 C.3       1 <0>        -0.0061
     31 C22        -3.3702   -4.5448   11.6865 C.3       1 <0>         0.0434
     32 O2         -2.3479   -5.3224   12.3128 O.3       1 <0>        -0.5819
     33 Cl1        -0.2098    9.6671    4.2940 Cl        1 <0>        -0.0466
     34 H1          2.7157    6.0184    1.1617 H         1 <0>         0.0770
     35 H2          4.2843    6.8074    1.4538 H         1 <0>         0.0791
     36 H3          3.3325    6.1847    2.8230 H         1 <0>         0.0631
     37 H4          3.6468    8.8665    0.3335 H         1 <0>         0.1380
     38 H5          2.5166   11.0428    0.5336 H         1 <0>         0.1401
     39 H6          0.8165   11.3966    2.2780 H         1 <0>         0.1410
     40 H7          1.0508    6.2723    3.4722 H         1 <0>         0.4077
     41 H8          1.2191    7.1146    8.0429 H         1 <0>         0.2016
     42 H9          0.3494    1.9517    7.1163 H         1 <0>         0.4545
     43 H10        -0.2756    0.3590    8.8607 H         1 <0>         0.1860
     44 H11         1.4581    4.3621   12.5724 H         1 <0>         0.1309
     45 H12         0.1613    5.2760   11.7653 H         1 <0>         0.1358
     46 H13        -0.2267    4.1885   13.1199 H         1 <0>         0.1083
     47 H14        -0.1795   -1.0367   13.3215 H         1 <0>         0.1249
     48 H15        -1.0392    0.5259   13.3352 H         1 <0>         0.1232
     49 H16        -2.5028   -1.4138   14.0090 H         1 <0>         0.1602
     50 H17        -3.0999   -0.5526   12.5701 H         1 <0>         0.1410
     51 H18        -2.1110   -3.0537   10.1885 H         1 <0>         0.1585
     52 H19        -2.8811   -1.4682   10.4370 H         1 <0>         0.1418
     53 H20        -0.6550   -1.1179    9.4992 H         1 <0>         0.1416
     54 H21         0.0756   -2.1281   10.7747 H         1 <0>         0.1211
     55 H22        -3.6469   -3.3459   13.4548 H         1 <0>         0.1465
     56 H23        -4.3202   -2.6321   11.9697 H         1 <0>         0.1464
     57 H24        -4.3221   -5.0710   11.7578 H         1 <0>         0.1026
     58 H25        -3.1180   -4.3904   10.6374 H         1 <0>         0.0719
     59 H26        -2.2211   -6.1961   11.9183 H         1 <0>         0.4154
     60 H27        -0.2308    1.8869   12.7032 H         1 <0>         0.4393
     61 H28        -1.4578   -2.9831   12.5075 H         1 <0>         0.4359
@<TRIPOS>BOND
     1    1    2 1
     2    1   34 1
     3    1   35 1
     4    1   36 1
     5    2    7 ar
     6    2    3 ar
     7    3    4 ar
     8    3   37 1
     9    4    5 ar
    10    4   38 1
    11    5    6 ar
    12    5   39 1
    13    6    7 ar
    14    6   33 1
    15    7    8 1
    16    8    9 am
    17    8   40 1
    18    9   10 2
    19    9   11 1
    20   11   15 1
    21   11   12 2
    22   12   13 1
    23   12   41 1
    24   13   14 2
    25   14   15 1
    26   14   16 1
    27   16   17 1
    28   16   42 1
    29   17   18 ar
    30   17   22 ar
    31   18   43 1
    32   18   19 ar
    33   19   24 1
    34   19   20 ar
    35   20   60 1
    36   20   21 ar
    37   21   23 1
    38   21   22 ar
    39   23   44 1
    40   23   45 1
    41   23   46 1
    42   24   29 1
    43   24   25 1
    44   25   26 1
    45   25   47 1
    46   25   48 1
    47   26   27 1
    48   26   49 1
    49   26   50 1
    50   27   28 1
    51   27   30 1
    52   27   61 1
    53   28   29 1
    54   28   51 1
    55   28   52 1
    56   29   53 1
    57   29   54 1
    58   30   31 1
    59   30   55 1
    60   30   56 1
    61   31   32 1
    62   31   57 1
    63   31   58 1
    64   32   59 1
@<TRIPOS>MOLECULE
CHEMBL1421__3
   59    62     0     0     0
SMALL
USER_CHARGES

@<TRIPOS>ATOM
      1 C1          3.3957    6.6541    1.8846 C.3       1 <0>        -0.1166
      2 C2          2.6765    7.9747    1.9828 C.ar      1 <0>        -0.0851
      3 C3          2.9953    9.0018    1.1154 C.ar      1 <0>        -0.1055
      4 C4          2.3363   10.2139    1.2044 C.ar      1 <0>        -0.1070
      5 C5          1.3559   10.4031    2.1614 C.ar      1 <0>        -0.1064
      6 C6          1.0323    9.3804    3.0324 C.ar      1 <0>        -0.0243
      7 C7          1.6890    8.1585    2.9411 C.ar      1 <0>         0.1460
      8 N1          1.3596    7.1184    3.8167 N.am      1 <0>        -0.6734
      9 C8          1.3468    7.3357    5.1468 C.2       1 <0>         0.6131
     10 O1          1.5224    8.4593    5.5818 O.2       1 <0>        -0.4899
     11 C9          1.1219    6.2221    6.0675 C.2       1 <0>        -0.3092
     12 C10         1.0631    6.2164    7.4543 C.2       1 <0>         0.1722
     13 N2          0.8449    5.0572    8.0222 N.2       1 <0>        -0.5179
     14 C11         0.6902    3.9568    7.3075 C.2       1 <0>         0.3122
     15 S1          0.8391    4.4936    5.7194 S.3       1 <0>         0.1339
     16 N3          0.4559    2.6723    7.7567 N.pl3     1 <0>        -0.5904
     17 C12         0.2485    2.4367    9.1094 C.ar      1 <0>         0.4415
     18 C13        -0.0983    1.1669    9.5596 C.ar      1 <0>        -0.3413
     19 C14        -0.2952    0.9826   10.9250 C.ar      1 <0>         0.4685
     20 N4         -0.1457    2.0210   11.7454 N.ar      1 <0>        -0.5922
     21 C15         0.1836    3.2084   11.2797 C.ar      1 <0>         0.3947
     22 N5          0.3840    3.4217    9.9951 N.ar      1 <0>        -0.5460
     23 C16         0.3420    4.3547   12.2451 C.3       1 <0>        -0.0834
     24 N6         -0.6424   -0.2634   11.4237 N.pl3     1 <0>        -0.5966
     25 C17        -1.0590   -0.4265   12.8248 C.3       1 <0>         0.1301
     26 C18        -2.3852   -1.1937   12.8521 C.3       1 <0>         0.0401
     27 N7         -2.2386   -2.4458   12.0979 N.3       1 <0>        -0.5276
     28 C19        -1.9479   -2.1841   10.6820 C.3       1 <0>         0.0364
     29 C20        -0.6096   -1.4564   10.5641 C.3       1 <0>         0.1269
     30 C21        -3.4316   -3.2906   12.2431 C.3       1 <0>         0.0538
     31 C22        -3.1492   -4.6764   11.6595 C.3       1 <0>         0.0792
     32 O2         -2.1337   -5.3205   12.4316 O.3       1 <0>        -0.5589
     33 Cl1        -0.1979    9.6184    4.2338 Cl        1 <0>        -0.0432
     34 H1          2.8613    5.9996    1.1960 H         1 <0>         0.0754
     35 H2          4.4087    6.8185    1.5172 H         1 <0>         0.0754
     36 H3          3.4374    6.1889    2.8695 H         1 <0>         0.0676
     37 H4          3.7606    8.8577    0.3671 H         1 <0>         0.1337
     38 H5          2.5880   11.0150    0.5252 H         1 <0>         0.1350
     39 H6          0.8430   11.3512    2.2282 H         1 <0>         0.1371
     40 H7          1.1404    6.2407    3.4666 H         1 <0>         0.4085
     41 H8          1.1907    7.1190    8.0333 H         1 <0>         0.1884
     42 H9          0.4362    1.9344    7.1273 H         1 <0>         0.4386
     43 H10        -0.2121    0.3456    8.8676 H         1 <0>         0.1413
     44 H11         1.3750    4.3992   12.5900 H         1 <0>         0.0870
     45 H12         0.0853    5.2888   11.7453 H         1 <0>         0.0890
     46 H13        -0.3198    4.2054   13.0982 H         1 <0>         0.0846
     47 H14        -0.3000   -0.9879   13.3695 H         1 <0>         0.0744
     48 H15        -1.1933    0.5532   13.2832 H         1 <0>         0.1008
     49 H16        -2.6534   -1.4200   13.8841 H         1 <0>         0.0903
     50 H17        -3.1670   -0.5850   12.3979 H         1 <0>         0.0372
     51 H18        -1.8989   -3.1286   10.1401 H         1 <0>         0.0905
     52 H19        -2.7358   -1.5615   10.2580 H         1 <0>         0.0380
     53 H20        -0.4469   -1.1573    9.5286 H         1 <0>         0.0877
     54 H21         0.1935   -2.1187   10.8874 H         1 <0>         0.0802
     55 H22        -3.6832   -3.3855   13.2994 H         1 <0>         0.0861
     56 H23        -4.2663   -2.8352   11.7102 H         1 <0>         0.0487
     57 H24        -4.0601   -5.2745   11.6863 H         1 <0>         0.0498
     58 H25        -2.8116   -4.5745   10.6281 H         1 <0>         0.0451
     59 H26        -1.9032   -6.2057   12.1180 H         1 <0>         0.3762
@<TRIPOS>BOND
     1    1    2 1
     2    1   34 1
     3    1   35 1
     4    1   36 1
     5    2    7 ar
     6    2    3 ar
     7    3    4 ar
     8    3   37 1
     9    4    5 ar
    10    4   38 1
    11    5    6 ar
    12    5   39 1
    13    6    7 ar
    14    6   33 1
    15    7    8 1
    16    8    9 am
    17    8   40 1
    18    9   10 2
    19    9   11 1
    20   11   15 1
    21   11   12 2
    22   12   13 1
    23   12   41 1
    24   13   14 2
    25   14   15 1
    26   14   16 1
    27   16   17 1
    28   16   42 1
    29   17   22 ar
    30   17   18 ar
    31   18   19 ar
    32   18   43 1
    33   19   20 ar
    34   19   24 1
    35   20   21 ar
    36   21   22 ar
    37   21   23 1
    38   23   44 1
    39   23   45 1
    40   23   46 1
    41   24   29 1
    42   24   25 1
    43   25   26 1
    44   25   47 1
    45   25   48 1
    46   26   27 1
    47   26   49 1
    48   26   50 1
    49   27   28 1
    50   27   30 1
    51   28   29 1
    52   28   51 1
    53   28   52 1
    54   29   53 1
    55   29   54 1
    56   30   31 1
    57   30   55 1
    58   30   56 1
    59   31   32 1
    60   31   57 1
    61   31   58 1
    62   32   59 1
@<TRIPOS>MOLECULE
CHEMBL1421__4
   60    63     0     0     0
SMALL
USER_CHARGES

@<TRIPOS>ATOM
      1 C1          3.2739    6.6585    1.8418 C.3       1 <0>        -0.1168
      2 C2          2.5810    7.9910    1.9663 C.ar      1 <0>        -0.0823
      3 C3          2.8983    9.0189    1.0995 C.ar      1 <0>        -0.1038
      4 C4          2.2635   10.2419    1.2126 C.ar      1 <0>        -0.1008
      5 C5          1.3088   10.4411    2.1933 C.ar      1 <0>        -0.1049
      6 C6          0.9869    9.4175    3.0639 C.ar      1 <0>        -0.0226
      7 C7          1.6192    8.1849    2.9486 C.ar      1 <0>         0.1373
      8 N1          1.2913    7.1440    3.8238 N.am      1 <0>        -0.6678
      9 C8          1.3128    7.3511    5.1554 C.2       1 <0>         0.6036
     10 O1          1.5184    8.4680    5.5945 O.2       1 <0>        -0.4759
     11 C9          1.0891    6.2346    6.0728 C.2       1 <0>        -0.2694
     12 C10         1.0619    6.2190    7.4604 C.2       1 <0>         0.1522
     13 N2          0.8357    5.0596    8.0247 N.2       1 <0>        -0.5060
     14 C11         0.6446    3.9678    7.3056 C.2       1 <0>         0.2464
     15 S1          0.7674    4.5141    5.7185 S.3       1 <0>         0.2029
     16 N3          0.3973    2.6842    7.7505 N.pl3     1 <0>        -0.5650
     17 C12         0.2197    2.4414    9.1063 C.ar      1 <0>         0.4999
     18 C13        -0.1342    1.1736    9.5555 C.ar      1 <0>        -0.3181
     19 C14        -0.3003    0.9817   10.9244 C.ar      1 <0>         0.4940
     20 N4         -0.1157    2.0114   11.7481 N.ar      1 <0>        -0.5712
     21 C15         0.2193    3.1978   11.2829 C.ar      1 <0>         0.4509
     22 N5          0.3911    3.4178    9.9956 N.ar      1 <0>        -0.4879
     23 C16         0.4179    4.3344   12.2523 C.3       1 <0>        -0.1253
     24 N6         -0.6531   -0.2629   11.4224 N.pl3     1 <0>        -0.5744
     25 C17        -0.9639   -0.4449   12.8484 C.3       1 <0>         0.1013
     26 C18        -2.3114   -1.1652   12.9649 C.3       1 <0>         0.0387
     27 N7         -2.2712   -2.4031   12.1749 N.3       1 <0>        -0.5277
     28 C19        -2.0835   -2.1176   10.7462 C.3       1 <0>         0.0305
     29 C20        -0.7325   -1.4351   10.5377 C.3       1 <0>         0.1149
     30 C21        -3.4796   -3.2085   12.3965 C.3       1 <0>         0.0543
     31 C22        -3.2958   -4.5889   11.7629 C.3       1 <0>         0.0774
     32 O2         -2.2472   -5.2869   12.4378 O.3       1 <0>        -0.5615
     33 Cl1        -0.2110    9.6681    4.2952 Cl        1 <0>        -0.0453
     34 H1          2.7121    6.0191    1.1609 H         1 <0>         0.0767
     35 H2          4.2810    6.8077    1.4524 H         1 <0>         0.0779
     36 H3          3.3298    6.1850    2.8220 H         1 <0>         0.0648
     37 H4          3.6435    8.8670    0.3327 H         1 <0>         0.1365
     38 H5          2.5139   11.0437    0.5337 H         1 <0>         0.1383
     39 H6          0.8148   11.3976    2.2790 H         1 <0>         0.1396
     40 H7          1.0484    6.2731    3.4723 H         1 <0>         0.4083
     41 H8          1.2191    7.1147    8.0430 H         1 <0>         0.1979
     42 H9          0.3477    1.9521    7.1161 H         1 <0>         0.4525
     43 H10        -0.2767    0.3593    8.8606 H         1 <0>         0.1835
     44 H11         1.4596    4.3615   12.5720 H         1 <0>         0.1250
     45 H12         0.1626    5.2758   11.7656 H         1 <0>         0.1301
     46 H13        -0.2249    4.1881   13.1203 H         1 <0>         0.1049
     47 H14        -0.1857   -1.0458   13.3190 H         1 <0>         0.1119
     48 H15        -1.0251    0.5276   13.3369 H         1 <0>         0.0843
     49 H16        -2.5057   -1.4068   14.0099 H         1 <0>         0.1076
     50 H17        -3.1034   -0.5184   12.5874 H         1 <0>         0.0465
     51 H18        -2.1124   -3.0499   10.1822 H         1 <0>         0.1076
     52 H19        -2.8786   -1.4576   10.3996 H         1 <0>         0.0467
     53 H20        -0.6409   -1.1170    9.4992 H         1 <0>         0.1034
     54 H21         0.0684   -2.1330   10.7819 H         1 <0>         0.1075
     55 H22        -3.6507   -3.3200   13.4672 H         1 <0>         0.0925
     56 H23        -4.3362   -2.7111   11.9416 H         1 <0>         0.0553
     57 H24        -4.2233   -5.1548   11.8494 H         1 <0>         0.0565
     58 H25        -3.0370   -4.4741   10.7103 H         1 <0>         0.0456
     59 H26        -2.0752   -6.1719   12.0881 H         1 <0>         0.3821
     60 H27        -0.2297    1.8867   12.7033 H         1 <0>         0.4392
@<TRIPOS>BOND
     1    1    2 1
     2    1   34 1
     3    1   35 1
     4    1   36 1
     5    2    7 ar
     6    2    3 ar
     7    3    4 ar
     8    3   37 1
     9    4    5 ar
    10    4   38 1
    11    5    6 ar
    12    5   39 1
    13    6    7 ar
    14    6   33 1
    15    7    8 1
    16    8    9 am
    17    8   40 1
    18    9   10 2
    19    9   11 1
    20   11   15 1
    21   11   12 2
    22   12   13 1
    23   12   41 1
    24   13   14 2
    25   14   15 1
    26   14   16 1
    27   16   17 1
    28   16   42 1
    29   17   18 ar
    30   17   22 ar
    31   18   43 1
    32   18   19 ar
    33   19   24 1
    34   19   20 ar
    35   20   60 1
    36   20   21 ar
    37   21   23 1
    38   21   22 ar
    39   23   44 1
    40   23   45 1
    41   23   46 1
    42   24   29 1
    43   24   25 1
    44   25   26 1
    45   25   47 1
    46   25   48 1
    47   26   27 1
    48   26   49 1
    49   26   50 1
    50   27   28 1
    51   27   30 1
    52   28   29 1
    53   28   51 1
    54   28   52 1
    55   29   53 1
    56   29   54 1
    57   30   31 1
    58   30   55 1
    59   30   56 1
    60   31   32 1
    61   31   57 1
    62   31   58 1
    63   32   59 1
@<TRIPOS>MOLECULE
CHEMBL301143
   60    64     0     0     0
SMALL
USER_CHARGES

@<TRIPOS>ATOM
      1 C1          1.3771    2.8279   -0.4487 C.3       1 <0>         0.0815
      2 N1          0.9915    1.5691    0.1939 N.pl3     1 <0>        -1.1204
      3 S1          0.9559    0.1670   -0.6865 S.o2      1 <0>         2.6995
      4 O1          0.5762   -0.8669    0.2114 O.2       1 <0>        -0.9564
      5 O2          0.2275    0.4509   -1.8731 O.2       1 <0>        -0.9527
      6 C2          2.6109   -0.1791   -1.1822 C.ar      1 <0>        -0.6977
      7 C3          3.0943    0.3247   -2.3785 C.ar      1 <0>         0.0105
      8 C4          4.3881    0.0625   -2.7805 C.ar      1 <0>        -0.1535
      9 C5          5.2223   -0.7145   -1.9840 C.ar      1 <0>         0.1959
     10 C6          4.7296   -1.2225   -0.7743 C.ar      1 <0>        -0.1121
     11 C7          3.4255   -0.9472   -0.3753 C.ar      1 <0>         0.0337
     12 C8          5.8352   -1.9947   -0.1653 C.2       1 <0>        -0.2134
     13 C9          5.8206   -2.6801    1.0345 C.2       1 <0>         0.0879
     14 C10         7.0120   -3.2374    1.5427 C.2       1 <0>        -0.0200
     15 C11         7.1226   -4.4129    2.2728 C.2       1 <0>        -0.0761
     16 C12         8.4707   -4.5818    2.5676 C.2       1 <0>        -0.1523
     17 C13         9.1563   -3.5351    2.0303 C.2       1 <0>         0.0701
     18 N2          8.2822   -2.7173    1.4002 N.pl3     1 <0>        -0.5016
     19 H1          8.5099   -1.9006    0.9289 H         1 <0>         0.4191
     20 C14        10.6526   -3.3633    2.1435 C.3       1 <0>        -0.0562
     21 C15        11.1615   -4.2766    3.2649 C.3       1 <0>        -0.1127
     22 C16        10.6181   -5.6929    3.0582 C.3       1 <0>        -0.1202
     23 C17         9.1109   -5.7080    3.3407 C.3       1 <0>        -0.0463
     24 C18         5.9957   -5.3310    2.6706 C.3       1 <0>         0.1200
     25 N3          5.7969   -6.3437    1.6253 N.3       1 <0>        -0.5269
     26 C19         5.3148   -5.7281    0.3803 C.3       1 <0>         0.0157
     27 C20         5.1786   -6.8075   -0.6969 C.3       1 <0>         0.0651
     28 O3          4.3025   -7.8354   -0.2266 O.3       1 <0>        -0.3846
     29 C21         4.7420   -8.4570    0.9841 C.3       1 <0>         0.0634
     30 C22         4.8738   -7.3944    2.0784 C.3       1 <0>         0.0169
     31 C23         6.9512   -1.8756   -1.1123 C.2       1 <0>         0.5583
     32 O4          8.0564   -2.3715   -0.9824 O.2       1 <0>        -0.5023
     33 N4          6.5401   -1.1233   -2.1472 N.am      1 <0>        -0.6505
     34 H2          2.3891    2.7392   -0.8436 H         1 <0>         0.0601
     35 H3          0.6869    3.0462   -1.2636 H         1 <0>         0.0707
     36 H4          1.3421    3.6350    0.2831 H         1 <0>         0.0846
     37 H5          0.7571    1.5569    1.1351 H         1 <0>         0.4204
     38 H6          2.4522    0.9284   -3.0029 H         1 <0>         0.1501
     39 H7          4.7533    0.4610   -3.7155 H         1 <0>         0.1398
     40 H8          3.0509   -1.3364    0.5599 H         1 <0>         0.1448
     41 H9          4.8966   -2.7890    1.5829 H         1 <0>         0.1514
     42 H10        11.1261   -3.6401    1.2015 H         1 <0>         0.0822
     43 H11        10.8860   -2.3254    2.3811 H         1 <0>         0.0742
     44 H12        12.2511   -4.2996    3.2481 H         1 <0>         0.0709
     45 H13        10.8214   -3.8940    4.2272 H         1 <0>         0.0676
     46 H14        10.7982   -6.0046    2.0294 H         1 <0>         0.0644
     47 H15        11.1223   -6.3785    3.7392 H         1 <0>         0.0670
     48 H16         8.9358   -5.5671    4.4073 H         1 <0>         0.0675
     49 H17         8.6870   -6.6600    3.0212 H         1 <0>         0.0757
     50 H18         6.2429   -5.8233    3.6112 H         1 <0>         0.0893
     51 H19         5.0809   -4.7512    2.7936 H         1 <0>         0.0422
     52 H20         4.3440   -5.2644    0.5557 H         1 <0>         0.0418
     53 H21         6.0259   -4.9713    0.0493 H         1 <0>         0.0882
     54 H22         4.7673   -6.3659   -1.6046 H         1 <0>         0.0947
     55 H23         6.1586   -7.2341   -0.9106 H         1 <0>         0.0587
     56 H24         4.0150   -9.2085    1.2922 H         1 <0>         0.0987
     57 H25         5.7094   -8.9316    0.8193 H         1 <0>         0.0597
     58 H26         5.2630   -7.8538    2.9869 H         1 <0>         0.0881
     59 H27         3.8960   -6.9573    2.2809 H         1 <0>         0.0444
     60 H28         7.0928   -0.8952   -2.9110 H         1 <0>         0.4214
@<TRIPOS>BOND
     1    1    2 1
     2    1   34 1
     3    1   35 1
     4    1   36 1
     5    2    3 1
     6    2   37 1
     7    3    4 2
     8    3    5 2
     9    3    6 1
    10    6   11 ar
    11    6    7 ar
    12    7    8 ar
    13    7   38 1
    14    8    9 ar
    15    8   39 1
    16    9   33 1
    17    9   10 ar
    18   10   11 ar
    19   10   12 1
    20   11   40 1
    21   12   13 2
    22   12   31 1
    23   13   14 1
    24   13   41 1
    25   14   18 1
    26   14   15 2
    27   15   16 1
    28   15   24 1
    29   16   23 1
    30   16   17 2
    31   17   18 1
    32   17   20 1
    33   18   19 1
    34   20   21 1
    35   20   42 1
    36   20   43 1
    37   21   22 1
    38   21   44 1
    39   21   45 1
    40   22   23 1
    41   22   46 1
    42   22   47 1
    43   23   48 1
    44   23   49 1
    45   24   25 1
    46   24   50 1
    47   24   51 1
    48   25   30 1
    49   25   26 1
    50   26   27 1
    51   26   52 1
    52   26   53 1
    53   27   28 1
    54   27   54 1
    55   27   55 1
    56   28   29 1
    57   29   30 1
    58   29   56 1
    59   29   57 1
    60   30   58 1
    61   30   59 1
    62   31   32 2
    63   31   33 am
    64   33   60 1
@<TRIPOS>MOLECULE
CHEMBL301143__1
   61    65     0     0     0
SMALL
USER_CHARGES

@<TRIPOS>ATOM
      1 C1          1.3770    2.8279   -0.4486 C.3       1 <0>         0.0794
      2 N1          0.9915    1.5690    0.1939 N.pl3     1 <0>        -1.1185
      3 S1          0.9558    0.1670   -0.6865 S.o2      1 <0>         2.6989
      4 O1          0.5762   -0.8669    0.2114 O.2       1 <0>        -0.9569
      5 O2          0.2275    0.4509   -1.8731 O.2       1 <0>        -0.9458
      6 C2          2.6109   -0.1791   -1.1822 C.ar      1 <0>        -0.6978
      7 C3          3.0943    0.3247   -2.3785 C.ar      1 <0>         0.0258
      8 C4          4.3881    0.0625   -2.7805 C.ar      1 <0>        -0.1500
      9 C5          5.2223   -0.7145   -1.9840 C.ar      1 <0>         0.2020
     10 C6          4.7296   -1.2225   -0.7743 C.ar      1 <0>        -0.1385
     11 C7          3.4255   -0.9472   -0.3753 C.ar      1 <0>         0.0449
     12 C8          5.8352   -1.9947   -0.1653 C.2       1 <0>        -0.1529
     13 C9          5.8206   -2.6801    1.0345 C.2       1 <0>         0.0199
     14 C10         7.0120   -3.2374    1.5427 C.2       1 <0>         0.0370
     15 C11         7.1226   -4.4129    2.2728 C.2       1 <0>        -0.1864
     16 C12         8.4707   -4.5818    2.5676 C.2       1 <0>        -0.1424
     17 C13         9.1563   -3.5351    2.0303 C.2       1 <0>         0.0785
     18 N2          8.2822   -2.7173    1.4002 N.pl3     1 <0>        -0.4868
     19 H1          8.5099   -1.9006    0.9289 H         1 <0>         0.4290
     20 C14        10.6526   -3.3633    2.1435 C.3       1 <0>        -0.0637
     21 C15        11.1615   -4.2766    3.2649 C.3       1 <0>        -0.1162
     22 C16        10.6181   -5.6929    3.0582 C.3       1 <0>        -0.1232
     23 C17         9.1109   -5.7080    3.3407 C.3       1 <0>        -0.0533
     24 C18         5.9957   -5.3310    2.6706 C.3       1 <0>         0.0746
     25 N3          5.7969   -6.3437    1.6253 N.4       1 <0>        -0.3830
     26 C19         5.3462   -5.6898    0.3890 C.3       1 <0>        -0.0497
     27 C20         5.1400   -6.7470   -0.6987 C.3       1 <0>         0.0395
     28 O3          4.1922   -7.7156   -0.2411 O.3       1 <0>        -0.3554
     29 C21         4.5757   -8.3637    0.9749 C.3       1 <0>         0.0357
     30 C22         4.7809   -7.3096    2.0657 C.3       1 <0>        -0.0450
     31 C23         6.9512   -1.8755   -1.1123 C.2       1 <0>         0.5551
     32 O4          8.0564   -2.3714   -0.9823 O.2       1 <0>        -0.4991
     33 N4          6.5401   -1.1233   -2.1472 N.am      1 <0>        -0.6465
     34 H2          2.3891    2.7392   -0.8436 H         1 <0>         0.0595
     35 H3          0.6868    3.0462   -1.2635 H         1 <0>         0.0735
     36 H4          1.3420    3.6350    0.2832 H         1 <0>         0.0879
     37 H5          0.7571    1.5568    1.1351 H         1 <0>         0.4218
     38 H6          2.4522    0.9284   -3.0029 H         1 <0>         0.1566
     39 H7          4.7533    0.4611   -3.7154 H         1 <0>         0.1462
     40 H8          3.0509   -1.3364    0.5599 H         1 <0>         0.1475
     41 H9          4.8966   -2.7890    1.5829 H         1 <0>         0.1608
     42 H10        11.1261   -3.6401    1.2015 H         1 <0>         0.0893
     43 H11        10.8860   -2.3254    2.3811 H         1 <0>         0.0828
     44 H12        12.2511   -4.2996    3.2481 H         1 <0>         0.0799
     45 H13        10.8214   -3.8940    4.2272 H         1 <0>         0.0715
     46 H14        10.7982   -6.0046    2.0294 H         1 <0>         0.0674
     47 H15        11.1223   -6.3785    3.7392 H         1 <0>         0.0757
     48 H16         8.9358   -5.5671    4.4073 H         1 <0>         0.0811
     49 H17         8.6870   -6.6600    3.0212 H         1 <0>         0.0643
     50 H18         6.2429   -5.8233    3.6112 H         1 <0>         0.1411
     51 H19         5.0809   -4.7512    2.7936 H         1 <0>         0.1327
     52 H20         4.4059   -5.1705    0.5742 H         1 <0>         0.1379
     53 H21         6.0993   -4.9731    0.0613 H         1 <0>         0.1387
     54 H22         4.7645   -6.2696   -1.6038 H         1 <0>         0.1381
     55 H23         6.0888   -7.2389   -0.9126 H         1 <0>         0.0795
     56 H24         3.7918   -9.0565    1.2811 H         1 <0>         0.1424
     57 H25         5.5052   -8.9110    0.8182 H         1 <0>         0.0800
     58 H26         5.1143   -7.7953    2.9827 H         1 <0>         0.1438
     59 H27         3.8408   -6.7897    2.2503 H         1 <0>         0.1403
     60 H28         7.0928   -0.8951   -2.9110 H         1 <0>         0.4283
     61 H29         6.6668   -6.8252    1.4535 H         1 <0>         0.4225
@<TRIPOS>BOND
     1    1    2 1
     2    1   34 1
     3    1   35 1
     4    1   36 1
     5    2    3 1
     6    2   37 1
     7    3    4 2
     8    3    5 2
     9    3    6 1
    10    6   11 ar
    11    6    7 ar
    12    7    8 ar
    13    7   38 1
    14    8    9 ar
    15    8   39 1
    16    9   33 1
    17    9   10 ar
    18   10   11 ar
    19   10   12 1
    20   11   40 1
    21   12   13 2
    22   12   31 1
    23   13   14 1
    24   13   41 1
    25   14   18 1
    26   14   15 2
    27   15   16 1
    28   15   24 1
    29   16   23 1
    30   16   17 2
    31   17   18 1
    32   17   20 1
    33   18   19 1
    34   20   21 1
    35   20   42 1
    36   20   43 1
    37   21   22 1
    38   21   44 1
    39   21   45 1
    40   22   23 1
    41   22   46 1
    42   22   47 1
    43   23   48 1
    44   23   49 1
    45   24   25 1
    46   24   50 1
    47   24   51 1
    48   25   30 1
    49   25   26 1
    50   25   61 1
    51   26   27 1
    52   26   52 1
    53   26   53 1
    54   27   28 1
    55   27   54 1
    56   27   55 1
    57   28   29 1
    58   29   30 1
    59   29   56 1
    60   29   57 1
    61   30   58 1
    62   30   59 1
    63   31   32 2
    64   31   33 am
    65   33   60 1
@<TRIPOS>MOLECULE
CHEMBL477197
   36    39     0     0     0
SMALL
USER_CHARGES

@<TRIPOS>ATOM
      1 C1         -0.0168    1.3847    0.0097 C.ar      1 <0>        -0.0734
      2 C2          1.1616    2.1028    0.0023 C.ar      1 <0>        -0.1509
      3 C3          2.3808    1.4427   -0.0114 C.ar      1 <0>         0.1127
      4 C4          2.4085    0.0532   -0.0117 C.ar      1 <0>         0.0607
      5 C5          1.2174   -0.6637   -0.0015 C.ar      1 <0>         0.1096
      6 C6          0.0021   -0.0041    0.0020 C.ar      1 <0>        -0.1291
      7 C7         -1.3116   -0.7345   -0.0163 C.3       1 <0>         0.0091
      8 H1         -1.9318   -0.4037    0.8168 H         1 <0>         0.1097
      9 C8         -2.0129   -0.4571   -1.3205 C.ar      1 <0>        -0.0779
     10 C9         -2.6959    0.6838   -1.7124 C.ar      1 <0>        -0.1043
     11 C10        -3.2557    0.6821   -2.9862 C.ar      1 <0>         0.0796
     12 C11        -3.1345   -0.4159   -3.8281 C.ar      1 <0>         0.0844
     13 C12        -2.4489   -1.5604   -3.4334 C.ar      1 <0>        -0.1119
     14 C13        -1.8915   -1.5584   -2.1635 C.ar      1 <0>        -0.0767
     15 C14        -1.1086   -2.6429   -1.4764 C.3       1 <0>        -0.1092
     16 C15        -1.1367   -2.2593    0.0349 C.3       1 <0>         0.1052
     17 C16         0.1665   -2.6533    0.7137 C.3       1 <0>         0.0380
     18 O1          1.2602   -2.0251    0.0116 O.3       1 <0>        -0.2900
     19 O2         -2.2545   -2.8668    0.6855 O.3       1 <0>        -0.5371
     20 O3         -3.6985   -0.3715   -5.0648 O.3       1 <0>        -0.4881
     21 O4         -3.9361    1.7784   -3.4157 O.3       1 <0>        -0.4873
     22 O5          3.5998   -0.6047   -0.0226 O.3       1 <0>        -0.4731
     23 O6          3.5420    2.1503   -0.0247 O.3       1 <0>        -0.4824
     24 H2         -0.9619    1.9071    0.0260 H         1 <0>         0.1342
     25 H3          1.1341    3.1825    0.0068 H         1 <0>         0.1393
     26 H4         -2.7898    1.5371   -1.0570 H         1 <0>         0.1407
     27 H5         -2.3551   -2.4142   -4.0881 H         1 <0>         0.1413
     28 H6         -1.5859   -3.6108   -1.6293 H         1 <0>         0.0896
     29 H7         -0.0828   -2.6620   -1.8446 H         1 <0>         0.1013
     30 H8          0.1476   -2.3287    1.7541 H         1 <0>         0.0810
     31 H9          0.2860   -3.7359    0.6715 H         1 <0>         0.1177
     32 H10        -2.1981   -3.8303    0.7466 H         1 <0>         0.3851
     33 H11        -3.1135   -0.0237   -5.7517 H         1 <0>         0.3880
     34 H12        -3.3848    2.4308   -3.8691 H         1 <0>         0.3873
     35 H13         3.9521   -0.7949    0.8577 H         1 <0>         0.3853
     36 H14         3.8879    2.3553    0.8547 H         1 <0>         0.3918
@<TRIPOS>BOND
     1    1    6 ar
     2    1    2 ar
     3    1   24 1
     4    2    3 ar
     5    2   25 1
     6    3    4 ar
     7    3   23 1
     8    4    5 ar
     9    4   22 1
    10    5   18 1
    11    5    6 ar
    12    6    7 1
    13    7    8 1
    14    7   16 1
    15    7    9 1
    16    9   14 ar
    17    9   10 ar
    18   10   11 ar
    19   10   26 1
    20   11   12 ar
    21   11   21 1
    22   12   13 ar
    23   12   20 1
    24   13   14 ar
    25   13   27 1
    26   14   15 1
    27   15   16 1
    28   15   28 1
    29   15   29 1
    30   16   17 1
    31   16   19 1
    32   17   18 1
    33   17   30 1
    34   17   31 1
    35   19   32 1
    36   20   33 1
    37   21   34 1
    38   22   35 1
    39   23   36 1
@<TRIPOS>MOLECULE
CHEMBL574738
   69    72     0     0     0
SMALL
USER_CHARGES

@<TRIPOS>ATOM
      1 C1         -1.8363    1.8103   -1.4722 C.3       1 <0>        -0.1886
      2 C2         -1.6365    0.2944   -1.4178 C.3       1 <0>        -0.0094
      3 N1         -2.9083   -0.3550   -1.0733 N.4       1 <0>        -0.3871
      4 C3         -3.3047    0.0354    0.2861 C.3       1 <0>        -0.0052
      5 C4         -4.6389   -0.6260    0.6384 C.3       1 <0>         0.0283
      6 N2         -4.4966   -2.0863    0.5514 N.3       1 <0>        -0.5297
      7 C5         -4.0759   -2.4902   -0.7977 C.3       1 <0>         0.0223
      8 C6         -2.7463   -1.8135   -1.1381 C.3       1 <0>        -0.0008
      9 C7         -5.7431   -2.7606    0.9381 C.3       1 <0>         0.0809
     10 C8         -5.4922   -4.2403    1.0747 C.ar      1 <0>        -0.0649
     11 C9         -5.8432   -5.0974    0.0476 C.ar      1 <0>        -0.0933
     12 C10        -5.6142   -6.4537    0.1696 C.ar      1 <0>        -0.0875
     13 C11        -5.0308   -6.9569    1.3252 C.ar      1 <0>         0.1812
     14 C12        -4.6796   -6.0937    2.3545 C.ar      1 <0>        -0.1024
     15 C13        -4.9064   -4.7374    2.2242 C.ar      1 <0>        -0.1362
     16 C14        -4.5199   -3.7991    3.3383 C.3       1 <0>         0.5103
     17 F1         -3.9503   -4.5296    4.3867 F         1 <0>        -0.1764
     18 F2         -3.5923   -2.8665    2.8619 F         1 <0>        -0.1629
     19 F3         -5.6583   -3.1301    3.8007 F         1 <0>        -0.1766
     20 N3         -4.7978   -8.3308    1.4521 N.am      1 <0>        -0.6826
     21 C15        -4.4882   -9.0650    0.3651 C.2       1 <0>         0.7088
     22 O1         -4.3176   -8.5199   -0.7083 O.2       1 <0>        -0.5536
     23 N4         -4.3676  -10.4034    0.4679 N.am      1 <0>        -0.6758
     24 C16        -3.9415  -11.1553   -0.6351 C.ar      1 <0>         0.1613
     25 C17        -3.0319  -10.6150   -1.5342 C.ar      1 <0>        -0.1044
     26 C18        -2.6123  -11.3563   -2.6210 C.ar      1 <0>        -0.0920
     27 C19        -3.0999  -12.6406   -2.8148 C.ar      1 <0>         0.0838
     28 C20        -4.0092  -13.1809   -1.9170 C.ar      1 <0>        -0.0898
     29 C21        -4.4244  -12.4429   -0.8262 C.ar      1 <0>        -0.1275
     30 O2         -2.6868  -13.3700   -3.8854 O.3       1 <0>        -0.2419
     31 C22        -1.4475  -13.9171   -3.8425 C.ar      1 <0>         0.3843
     32 C23        -0.9333  -14.5842   -4.9476 C.ar      1 <0>        -0.3092
     33 C24         0.3448  -15.1285   -4.8538 C.ar      1 <0>         0.4598
     34 N5          1.0234  -14.9910   -3.7165 N.ar      1 <0>        -0.5925
     35 C25         0.5000  -14.3508   -2.6911 C.ar      1 <0>         0.3761
     36 N6         -0.7041  -13.8182   -2.7438 N.ar      1 <0>        -0.6017
     37 N7          0.9023  -15.8038   -5.9283 N.pl3     1 <0>        -0.7108
     38 C26         0.1458  -15.9492   -7.1744 C.3       1 <0>         0.0880
     39 H1         -0.8926    2.2922   -1.7278 H         1 <0>         0.1065
     40 H2         -2.5838    2.0514   -2.2280 H         1 <0>         0.0795
     41 H3         -2.1748    2.1673   -0.4995 H         1 <0>         0.0804
     42 H4         -1.2980   -0.0626   -2.3904 H         1 <0>         0.1302
     43 H5         -0.8890    0.0533   -0.6620 H         1 <0>         0.1299
     44 H6         -2.5411   -0.2873    0.9940 H         1 <0>         0.1386
     45 H7         -3.4119    1.1189    0.3362 H         1 <0>         0.1368
     46 H8         -4.9259   -0.3484    1.6526 H         1 <0>         0.1238
     47 H9         -5.4058   -0.2930   -0.0610 H         1 <0>         0.0621
     48 H10        -3.9521   -3.5727   -0.8311 H         1 <0>         0.1246
     49 H11        -4.8335   -2.1879   -1.5207 H         1 <0>         0.0622
     50 H12        -2.4395   -2.1006   -2.1439 H         1 <0>         0.1352
     51 H13        -1.9856   -2.1267   -0.4230 H         1 <0>         0.1378
     52 H14        -6.0916   -2.3617    1.8908 H         1 <0>         0.1056
     53 H15        -6.5010   -2.5896    0.1736 H         1 <0>         0.0665
     54 H16        -6.2972   -4.7056   -0.8506 H         1 <0>         0.1368
     55 H17        -5.8888   -7.1226   -0.6327 H         1 <0>         0.1503
     56 H18        -4.2257   -6.4819    3.2544 H         1 <0>         0.1458
     57 H19        -4.8592   -8.7548    2.3223 H         1 <0>         0.4154
     58 H20        -4.5758  -10.8463    1.3054 H         1 <0>         0.4130
     59 H21        -2.6528   -9.6149   -1.3838 H         1 <0>         0.1404
     60 H22        -1.9048  -10.9362   -3.3205 H         1 <0>         0.1293
     61 H23        -4.3889  -14.1804   -2.0687 H         1 <0>         0.1369
     62 H24        -5.1283  -12.8655   -0.1245 H         1 <0>         0.1361
     63 H25        -1.5103  -14.6785   -5.8557 H         1 <0>         0.1488
     64 H26         1.0758  -14.2566   -1.7822 H         1 <0>         0.2008
     65 H27         1.7933  -16.1802   -5.8551 H         1 <0>         0.4136
     66 H28         0.7419  -16.5046   -7.8986 H         1 <0>         0.0865
     67 H29        -0.7804  -16.4886   -6.9763 H         1 <0>         0.0628
     68 H30        -0.0868  -14.9627   -7.5754 H         1 <0>         0.0620
     69 H31        -3.6209   -0.0666   -1.7269 H         1 <0>         0.4195
@<TRIPOS>BOND
     1    1    2 1
     2    1   39 1
     3    1   40 1
     4    1   41 1
     5    2    3 1
     6    2   42 1
     7    2   43 1
     8    3    8 1
     9    3    4 1
    10    3   69 1
    11    4    5 1
    12    4   44 1
    13    4   45 1
    14    5    6 1
    15    5   46 1
    16    5   47 1
    17    6    7 1
    18    6    9 1
    19    7    8 1
    20    7   48 1
    21    7   49 1
    22    8   50 1
    23    8   51 1
    24    9   10 1
    25    9   52 1
    26    9   53 1
    27   10   15 ar
    28   10   11 ar
    29   11   12 ar
    30   11   54 1
    31   12   13 ar
    32   12   55 1
    33   13   14 ar
    34   13   20 1
    35   14   15 ar
    36   14   56 1
    37   15   16 1
    38   16   17 1
    39   16   18 1
    40   16   19 1
    41   20   21 am
    42   20   57 1
    43   21   22 2
    44   21   23 am
    45   23   24 1
    46   23   58 1
    47   24   29 ar
    48   24   25 ar
    49   25   26 ar
    50   25   59 1
    51   26   27 ar
    52   26   60 1
    53   27   28 ar
    54   27   30 1
    55   28   29 ar
    56   28   61 1
    57   29   62 1
    58   30   31 1
    59   31   36 ar
    60   31   32 ar
    61   32   33 ar
    62   32   63 1
    63   33   34 ar
    64   33   37 1
    65   34   35 ar
    66   35   36 ar
    67   35   64 1
    68   37   38 1
    69   37   65 1
    70   38   66 1
    71   38   67 1
    72   38   68 1
@<TRIPOS>MOLECULE
CHEMBL574738__1
   69    72     0     0     0
SMALL
USER_CHARGES

@<TRIPOS>ATOM
      1 C1          0.0759    1.5438    0.6037 C.3       1 <0>        -0.1550
      2 C2          0.0819    0.0240    0.4269 C.3       1 <0>         0.0497
      3 N1         -1.3011   -0.4668    0.3613 N.3       1 <0>        -0.5383
      4 C3         -1.9905   -0.2720    1.6446 C.3       1 <0>         0.0216
      5 C4         -3.4418   -0.7401    1.5167 C.3       1 <0>        -0.0034
      6 N2         -3.4673   -2.1590    1.1380 N.4       1 <0>        -0.3925
      7 C5         -2.7968   -2.3340   -0.1571 C.3       1 <0>        -0.0069
      8 C6         -1.3401   -1.8792   -0.0432 C.3       1 <0>         0.0266
      9 C7         -4.8606   -2.6126    1.0329 C.3       1 <0>         0.0216
     10 C8         -4.8877   -4.0989    0.7859 C.ar      1 <0>        -0.1314
     11 C9         -5.0212   -4.5819   -0.5031 C.ar      1 <0>        -0.0646
     12 C10        -5.0460   -5.9433   -0.7329 C.ar      1 <0>        -0.0851
     13 C11        -4.9367   -6.8279    0.3323 C.ar      1 <0>         0.2104
     14 C12        -4.8028   -6.3399    1.6253 C.ar      1 <0>        -0.0958
     15 C13        -4.7734   -4.9769    1.8479 C.ar      1 <0>        -0.1409
     16 C14        -4.6219   -4.4463    3.2502 C.3       1 <0>         0.5070
     17 F1         -4.6433   -5.5117    4.1567 F         1 <0>        -0.1547
     18 F2         -3.4060   -3.7635    3.3616 F         1 <0>        -0.1851
     19 F3         -5.6759   -3.5713    3.5341 F         1 <0>        -0.1640
     20 N3         -4.9619   -8.2081    0.1029 N.am      1 <0>        -0.6837
     21 C15        -4.4196   -8.7143   -1.0223 C.2       1 <0>         0.7086
     22 O1         -3.8266   -7.9843   -1.7931 O.2       1 <0>        -0.5502
     23 N4         -4.5345  -10.0295   -1.2932 N.am      1 <0>        -0.6719
     24 C16        -3.8805  -10.5754   -2.4057 C.ar      1 <0>         0.1552
     25 C17        -2.6449  -10.0782   -2.7980 C.ar      1 <0>        -0.1020
     26 C18        -2.0009  -10.6166   -3.8944 C.ar      1 <0>        -0.0924
     27 C19        -2.5883  -11.6538   -4.6042 C.ar      1 <0>         0.0887
     28 C20        -3.8231  -12.1507   -4.2129 C.ar      1 <0>        -0.0905
     29 C21        -4.4651  -11.6176   -3.1127 C.ar      1 <0>        -0.1241
     30 O2         -1.9539  -12.1832   -5.6840 O.3       1 <0>        -0.2421
     31 C22        -0.8993  -13.0053   -5.4625 C.ar      1 <0>         0.3838
     32 C23        -0.1485  -13.4903   -6.5263 C.ar      1 <0>        -0.3084
     33 C24         0.9254  -14.3313   -6.2467 C.ar      1 <0>         0.4604
     34 N5          1.1921  -14.6382   -4.9788 N.ar      1 <0>        -0.5919
     35 C25         0.4556  -14.1572   -3.9982 C.ar      1 <0>         0.3765
     36 N6         -0.5651  -13.3548   -4.2232 N.ar      1 <0>        -0.6028
     37 N7          1.7048  -14.8418   -7.2729 N.pl3     1 <0>        -0.7101
     38 C26         1.4012  -14.4974   -8.6641 C.3       1 <0>         0.0876
     39 H1          1.1021    1.9080    0.6524 H         1 <0>         0.0710
     40 H2         -0.4339    2.0059   -0.2417 H         1 <0>         0.0692
     41 H3         -0.4448    1.8002    1.5263 H         1 <0>         0.0560
     42 H4          0.6026   -0.2324   -0.4957 H         1 <0>         0.0890
     43 H5          0.5917   -0.4381    1.2723 H         1 <0>         0.0460
     44 H6         -1.4883   -0.8519    2.4189 H         1 <0>         0.0601
     45 H7         -1.9714    0.7847    1.9111 H         1 <0>         0.1280
     46 H8         -3.9511   -0.6097    2.4716 H         1 <0>         0.1352
     47 H9         -3.9476   -0.1508    0.7518 H         1 <0>         0.1417
     48 H10        -2.8278   -3.3853   -0.4432 H         1 <0>         0.1337
     49 H11        -3.3058   -1.7365   -0.9134 H         1 <0>         0.1410
     50 H12        -0.8464   -1.9950   -1.0080 H         1 <0>         0.1252
     51 H13        -0.8272   -2.4856    0.7034 H         1 <0>         0.0590
     52 H14        -5.3865   -2.3888    1.9611 H         1 <0>         0.1450
     53 H15        -5.3489   -2.0978    0.2055 H         1 <0>         0.1515
     54 H16        -5.1065   -3.8935   -1.3309 H         1 <0>         0.1522
     55 H17        -5.1506   -6.3199   -1.7397 H         1 <0>         0.1607
     56 H18        -4.7176   -7.0252    2.4556 H         1 <0>         0.1562
     57 H19        -5.3697   -8.8006    0.7538 H         1 <0>         0.4195
     58 H20        -5.0700  -10.5982   -0.7181 H         1 <0>         0.4141
     59 H21        -2.1878   -9.2703   -2.2459 H         1 <0>         0.1387
     60 H22        -1.0398  -10.2299   -4.1996 H         1 <0>         0.1305
     61 H23        -4.2803  -12.9577   -4.7663 H         1 <0>         0.1381
     62 H24        -5.4240  -12.0080   -2.8052 H         1 <0>         0.1366
     63 H25        -0.3919  -13.2222   -7.5438 H         1 <0>         0.1492
     64 H26         0.6976  -14.4252   -2.9804 H         1 <0>         0.2009
     65 H27         2.4512  -15.4270   -7.0699 H         1 <0>         0.4139
     66 H28         0.3926  -14.8302   -8.9090 H         1 <0>         0.0630
     67 H29         1.4691  -13.4173   -8.7942 H         1 <0>         0.0624
     68 H30         2.1162  -14.9885   -9.3243 H         1 <0>         0.0869
     69 H31        -2.9890   -2.7030    1.8403 H         1 <0>         0.4158
@<TRIPOS>BOND
     1    1    2 1
     2    1   39 1
     3    1   40 1
     4    1   41 1
     5    2    3 1
     6    2   42 1
     7    2   43 1
     8    3    8 1
     9    3    4 1
    10    4    5 1
    11    4   44 1
    12    4   45 1
    13    5    6 1
    14    5   46 1
    15    5   47 1
    16    6    7 1
    17    6    9 1
    18    6   69 1
    19    7    8 1
    20    7   48 1
    21    7   49 1
    22    8   50 1
    23    8   51 1
    24    9   10 1
    25    9   52 1
    26    9   53 1
    27   10   15 ar
    28   10   11 ar
    29   11   12 ar
    30   11   54 1
    31   12   13 ar
    32   12   55 1
    33   13   14 ar
    34   13   20 1
    35   14   15 ar
    36   14   56 1
    37   15   16 1
    38   16   17 1
    39   16   18 1
    40   16   19 1
    41   20   21 am
    42   20   57 1
    43   21   22 2
    44   21   23 am
    45   23   24 1
    46   23   58 1
    47   24   29 ar
    48   24   25 ar
    49   25   26 ar
    50   25   59 1
    51   26   27 ar
    52   26   60 1
    53   27   28 ar
    54   27   30 1
    55   28   29 ar
    56   28   61 1
    57   29   62 1
    58   30   31 1
    59   31   36 ar
    60   31   32 ar
    61   32   33 ar
    62   32   63 1
    63   33   34 ar
    64   33   37 1
    65   34   35 ar
    66   35   36 ar
    67   35   64 1
    68   37   38 1
    69   37   65 1
    70   38   66 1
    71   38   67 1
    72   38   68 1
@<TRIPOS>MOLECULE
CHEMBL89363
   37    39     0     0     0
SMALL
USER_CHARGES

@<TRIPOS>ATOM
      1 C1          0.0857    1.4726   -0.0873 C.3       1 <0>        -0.0789
      2 C2         -0.0029   -0.0315   -0.0582 C.2       1 <0>        -0.1839
      3 C3         -0.2340   -0.8377   -1.1242 C.2       1 <0>         0.0341
      4 N1         -0.2426   -2.1288   -0.7072 N.pl3     1 <0>        -0.5156
      5 H1         -0.3864   -2.9048   -1.2712 H         1 <0>         0.4164
      6 C4         -0.0128   -2.1534    0.6517 C.2       1 <0>        -0.0318
      7 C5          0.1447   -0.8409    1.0697 C.2       1 <0>        -0.0625
      8 C6          0.4201   -0.3756    2.4764 C.3       1 <0>        -0.0360
      9 C7         -0.9049   -0.1308    3.2012 C.3       1 <0>        -0.1717
     10 C8         -0.6295    0.3344    4.6079 C.2       1 <0>         0.4891
     11 O1          0.5200    0.4587    4.9948 O.co2     1 <0>        -0.6981
     12 O2         -1.5562    0.5866    5.3590 O.co2     1 <0>        -0.7074
     13 C9          0.0551   -3.3027    1.4661 C.2       1 <0>         0.1091
     14 C10         0.5752   -4.4785    0.9598 C.2       1 <0>        -0.2323
     15 C11         0.5809   -5.8108    1.6036 C.ar      1 <0>        -0.0818
     16 C12         0.1080   -6.2827    2.8239 C.ar      1 <0>        -0.0705
     17 C13         0.2660   -7.6142    3.1503 C.ar      1 <0>        -0.1372
     18 C14         0.8929   -8.4766    2.2659 C.ar      1 <0>        -0.0947
     19 C15         1.3655   -8.0186    1.0530 C.ar      1 <0>        -0.1379
     20 C16         1.2157   -6.6802    0.7061 C.ar      1 <0>         0.1311
     21 N2          1.5915   -5.9705   -0.4277 N.am      1 <0>        -0.6535
     22 C17         1.2363   -4.6777   -0.3363 C.2       1 <0>         0.5577
     23 O3          1.4314   -3.8204   -1.1796 O.2       1 <0>        -0.5180
     24 H2          1.1173    1.7723   -0.2716 H         1 <0>         0.0581
     25 H3         -0.5524    1.8588   -0.8822 H         1 <0>         0.0556
     26 H4         -0.2439    1.8745    0.8707 H         1 <0>         0.0674
     27 H5         -0.3866   -0.5056   -2.1405 H         1 <0>         0.1635
     28 H6          0.9887   -1.1394    3.0069 H         1 <0>         0.0665
     29 H7          0.9946    0.5502    2.4469 H         1 <0>         0.0738
     30 H8         -1.4736    0.6329    2.6707 H         1 <0>         0.0580
     31 H9         -1.4794   -1.0567    3.2307 H         1 <0>         0.0539
     32 H10        -0.2995   -3.2638    2.4855 H         1 <0>         0.1540
     33 H11        -0.3803   -5.6097    3.5131 H         1 <0>         0.1312
     34 H12        -0.0993   -7.9844    4.0968 H         1 <0>         0.1286
     35 H13         1.0133   -9.5173    2.5283 H         1 <0>         0.1276
     36 H14         1.8529   -8.7006    0.3720 H         1 <0>         0.1230
     37 H15         2.0487   -6.3594   -1.1897 H         1 <0>         0.4130
@<TRIPOS>BOND
     1    1    2 1
     2    1   24 1
     3    1   25 1
     4    1   26 1
     5    2    7 1
     6    2    3 2
     7    3    4 1
     8    3   27 1
     9    4    5 1
    10    4    6 1
    11    6    7 2
    12    6   13 1
    13    7    8 1
    14    8    9 1
    15    8   28 1
    16    8   29 1
    17    9   10 1
    18    9   30 1
    19    9   31 1
    20   10   11 2
    21   10   12 1
    22   13   14 2
    23   13   32 1
    24   14   22 1
    25   14   15 1
    26   15   20 ar
    27   15   16 ar
    28   16   17 ar
    29   16   33 1
    30   17   18 ar
    31   17   34 1
    32   18   19 ar
    33   18   35 1
    34   19   20 ar
    35   19   36 1
    36   20   21 1
    37   21   22 am
    38   21   37 1
    39   22   23 2
@<TRIPOS>MOLECULE
CHEMBL24828
   55    58     0     0     0
SMALL
USER_CHARGES

@<TRIPOS>ATOM
      1 C1          2.6309    1.2660   -0.6092 C.3       1 <0>        -0.0474
      2 N1          2.4157   -0.1864   -0.5609 N.4       1 <0>        -0.3861
      3 C2          0.9980   -0.4779   -0.8055 C.3       1 <0>        -0.0039
      4 C3          0.7828   -1.9925   -0.8367 C.3       1 <0>        -0.1426
      5 C4          1.2038   -2.5903    0.5089 C.3       1 <0>        -0.0980
      6 C5          2.6625   -2.2170    0.7882 C.3       1 <0>        -0.1435
      7 C6          2.8080   -0.6940    0.7592 C.3       1 <0>        -0.0066
      8 C7          1.0662   -4.1132    0.4576 C.3       1 <0>         0.0553
      9 O1          1.3470   -4.6606    1.7474 O.3       1 <0>        -0.2959
     10 C8          1.2687   -6.0108    1.8748 C.ar      1 <0>         0.1621
     11 C9          0.9356   -6.7800    0.7819 C.ar      1 <0>        -0.1791
     12 C10         0.8556   -8.1714    0.9161 C.ar      1 <0>         0.2019
     13 C11         1.1188   -8.7661    2.1751 C.ar      1 <0>        -0.1785
     14 C12         1.4552   -7.9617    3.2703 C.ar      1 <0>        -0.1424
     15 C13         1.5332   -6.6066    3.1158 C.ar      1 <0>         0.1099
     16 O2          1.8659   -5.8267    4.1789 O.3       1 <0>        -0.3030
     17 C14         2.1239   -6.4927    5.4166 C.3       1 <0>         0.0198
     18 C15         1.0305  -10.1747    2.2796 C.ar      1 <0>         0.4667
     19 N2          0.7062  -10.8654    1.1943 N.ar      1 <0>        -0.5768
     20 C16         0.4689  -10.2662    0.0383 C.ar      1 <0>         0.3479
     21 N3          0.5356   -8.9654   -0.1178 N.ar      1 <0>        -0.5414
     22 N4          1.2758  -10.8129    3.4786 N.pl3     1 <0>        -0.6297
     23 C17         1.3174  -12.2109    3.5315 C.ar      1 <0>         0.1376
     24 C18         1.5041  -12.9458    2.3685 C.ar      1 <0>        -0.1039
     25 C19         1.5448  -14.3255    2.4234 C.ar      1 <0>        -0.0733
     26 C20         1.3998  -14.9764    3.6357 C.ar      1 <0>        -0.0857
     27 C21         1.2135  -14.2482    4.7973 C.ar      1 <0>        -0.1007
     28 C22         1.1776  -12.8666    4.7500 C.ar      1 <0>         0.0687
     29 F1          1.0013  -12.1551    5.8848 F         1 <0>        -0.1330
     30 Br1         1.4557  -16.8653    3.7050 Br        1 <0>        -0.0295
     31 H1          3.6846    1.4831   -0.4343 H         1 <0>         0.1242
     32 H2          2.3398    1.6440   -1.5893 H         1 <0>         0.1242
     33 H3          2.0279    1.7484    0.1601 H         1 <0>         0.1219
     34 H4          0.3953   -0.0421   -0.0087 H         1 <0>         0.1305
     35 H5          0.6991   -0.0490   -1.7619 H         1 <0>         0.1344
     36 H6         -0.2707   -2.2068   -1.0166 H         1 <0>         0.1175
     37 H7          1.3850   -2.4293   -1.6334 H         1 <0>         0.0935
     38 H8          0.5678   -2.1921    1.2995 H         1 <0>         0.1030
     39 H9          2.9526   -2.5918    1.7698 H         1 <0>         0.1210
     40 H10         3.3037   -2.6585    0.0252 H         1 <0>         0.0893
     41 H11         3.8454   -0.4248    0.9579 H         1 <0>         0.1325
     42 H12         2.1667   -0.2536    1.5227 H         1 <0>         0.1299
     43 H13         0.0499   -4.3766    0.1646 H         1 <0>         0.0787
     44 H14         1.7703   -4.5174   -0.2697 H         1 <0>         0.0742
     45 H15         0.7373   -6.3133   -0.1716 H         1 <0>         0.1540
     46 H16         1.6562   -8.4107    4.2318 H         1 <0>         0.1414
     47 H17         2.3771   -5.7565    6.1794 H         1 <0>         0.1093
     48 H18         1.2355   -7.0441    5.7245 H         1 <0>         0.0601
     49 H19         2.9558   -7.1855    5.2899 H         1 <0>         0.0596
     50 H20         0.2090  -10.8754   -0.8147 H         1 <0>         0.2036
     51 H21         1.4193  -10.2926    4.2845 H         1 <0>         0.4241
     52 H22         1.6171  -12.4391    1.4214 H         1 <0>         0.1818
     53 H23         1.6896  -14.8970    1.5185 H         1 <0>         0.1462
     54 H24         1.1003  -14.7590    5.7421 H         1 <0>         0.1515
     55 H25         2.9761   -0.6322   -1.2717 H         1 <0>         0.4246
@<TRIPOS>BOND
     1    1    2 1
     2    1   31 1
     3    1   32 1
     4    1   33 1
     5    2    7 1
     6    2    3 1
     7    2   55 1
     8    3    4 1
     9    3   34 1
    10    3   35 1
    11    4    5 1
    12    4   36 1
    13    4   37 1
    14    5    6 1
    15    5    8 1
    16    5   38 1
    17    6    7 1
    18    6   39 1
    19    6   40 1
    20    7   41 1
    21    7   42 1
    22    8    9 1
    23    8   43 1
    24    8   44 1
    25    9   10 1
    26   10   15 ar
    27   10   11 ar
    28   11   12 ar
    29   11   45 1
    30   12   21 ar
    31   12   13 ar
    32   13   14 ar
    33   13   18 ar
    34   14   15 ar
    35   14   46 1
    36   15   16 1
    37   16   17 1
    38   17   47 1
    39   17   48 1
    40   17   49 1
    41   18   19 ar
    42   18   22 1
    43   19   20 ar
    44   20   21 ar
    45   20   50 1
    46   22   23 1
    47   22   51 1
    48   23   28 ar
    49   23   24 ar
    50   24   25 ar
    51   24   52 1
    52   25   26 ar
    53   25   53 1
    54   26   27 ar
    55   26   30 1
    56   27   28 ar
    57   27   54 1
    58   28   29 1
@<TRIPOS>MOLECULE
CHEMBL299194
   58    61     0     0     0
SMALL
USER_CHARGES

@<TRIPOS>ATOM
      1 C1         -0.0178    1.4608    0.0101 C.3       1 <0>         0.0709
      2 N1          0.0021   -0.0041    0.0020 N.am      1 <0>        -0.5071
      3 C2         -1.1808   -0.6992    0.0039 C.ar      1 <0>         0.4684
      4 C3         -1.1793   -2.1109   -0.0037 C.ar      1 <0>        -0.2785
      5 C4          0.0431   -2.8209   -0.0135 C.2       1 <0>         0.0275
      6 C5          1.2184   -2.1187   -0.0153 C.2       1 <0>        -0.1592
      7 C6          1.1813   -0.6547   -0.0127 C.2       1 <0>         0.5564
      8 O1          2.2223   -0.0221   -0.0197 O.2       1 <0>        -0.4989
      9 C7          2.5161   -2.8335   -0.0249 C.ar      1 <0>        -0.0133
     10 C8          3.1327   -3.1828    1.1772 C.ar      1 <0>        -0.0066
     11 C9          4.3424   -3.8490    1.1613 C.ar      1 <0>        -0.1055
     12 C10         4.9428   -4.1701   -0.0429 C.ar      1 <0>        -0.0857
     13 C11         4.3369   -3.8268   -1.2380 C.ar      1 <0>        -0.1053
     14 C12         3.1243   -3.1655   -1.2361 C.ar      1 <0>        -0.0065
     15 Cl1         2.3618   -2.7423   -2.7372 Cl        1 <0>        -0.0510
     16 Cl2         2.3811   -2.7803    2.6894 Cl        1 <0>        -0.0516
     17 C13        -2.4105   -2.7832   -0.0019 C.ar      1 <0>         0.2671
     18 N2         -3.5204   -2.0689    0.0069 N.ar      1 <0>        -0.5825
     19 C14        -3.4836   -0.7410    0.0139 C.ar      1 <0>         0.6096
     20 N3         -2.3465   -0.0625    0.0125 N.ar      1 <0>        -0.6015
     21 N4         -4.6746   -0.0428    0.0225 N.pl3     1 <0>        -0.6914
     22 C15        -5.9482   -0.7668    0.0237 C.3       1 <0>         0.1369
     23 C16        -7.1044    0.2351    0.0338 C.3       1 <0>        -0.1330
     24 C17        -8.4345   -0.5211    0.0350 C.3       1 <0>         0.0594
     25 N5         -9.5447    0.4409    0.0447 N.3       1 <0>        -0.5396
     26 C18        -9.5765    1.1958    1.3054 C.3       1 <0>         0.0196
     27 C19       -10.7072    2.2256    1.2514 C.3       1 <0>        -0.0028
     28 N6        -11.9873    1.5368    1.0408 N.4       1 <0>        -0.3885
     29 C20       -11.9490    0.8074   -0.2336 C.3       1 <0>        -0.0028
     30 C21       -10.8286   -0.2341   -0.1920 C.3       1 <0>         0.0253
     31 C22       -13.0745    2.5240    1.0071 C.3       1 <0>        -0.0461
     32 H1          1.0048    1.8381    0.0023 H         1 <0>         0.1011
     33 H2         -0.5450    1.8219   -0.8730 H         1 <0>         0.0793
     34 H3         -0.5280    1.8123    0.9069 H         1 <0>         0.0789
     35 H4          0.0498   -3.9008   -0.0190 H         1 <0>         0.1505
     36 H5          4.8208   -4.1196    2.0909 H         1 <0>         0.1446
     37 H6          5.8889   -4.6908   -0.0499 H         1 <0>         0.1466
     38 H7          4.8111   -4.0800   -2.1748 H         1 <0>         0.1447
     39 H8         -2.4493   -3.8625   -0.0079 H         1 <0>         0.1863
     40 H9         -4.6681    0.9272    0.0277 H         1 <0>         0.4164
     41 H10        -6.0137   -1.3883   -0.8694 H         1 <0>         0.0753
     42 H11        -6.0065   -1.3979    0.9105 H         1 <0>         0.0721
     43 H12        -7.0389    0.8565    0.9269 H         1 <0>         0.0713
     44 H13        -7.0461    0.8662   -0.8531 H         1 <0>         0.0852
     45 H14        -8.5000   -1.1425   -0.8581 H         1 <0>         0.0945
     46 H15        -8.4928   -1.1521    0.9219 H         1 <0>         0.0526
     47 H16        -9.7480    0.5105    2.1354 H         1 <0>         0.0620
     48 H17        -8.6247    1.7079    1.4468 H         1 <0>         0.1249
     49 H18       -10.7416    2.7769    2.1911 H         1 <0>         0.1358
     50 H19       -10.5282    2.9190    0.4297 H         1 <0>         0.1377
     51 H20       -12.9040    0.3074   -0.3950 H         1 <0>         0.1366
     52 H21       -11.7636    1.5081   -1.0478 H         1 <0>         0.1379
     53 H22       -10.7903   -0.7652   -1.1431 H         1 <0>         0.1250
     54 H23       -11.0207   -0.9430    0.6134 H         1 <0>         0.0620
     55 H24       -12.9017    3.2271    0.1923 H         1 <0>         0.1233
     56 H25       -14.0246    2.0131    0.8508 H         1 <0>         0.1247
     57 H26       -13.1040    3.0645    1.9532 H         1 <0>         0.1244
     58 H27       -12.1473    0.8865    1.7955 H         1 <0>         0.4226
@<TRIPOS>BOND
     1    1    2 1
     2    1   32 1
     3    1   33 1
     4    1   34 1
     5    2    7 am
     6    2    3 1
     7    3   20 ar
     8    3    4 ar
     9    4    5 1
    10    4   17 ar
    11    5    6 2
    12    5   35 1
    13    6    7 1
    14    6    9 1
    15    7    8 2
    16    9   14 ar
    17    9   10 ar
    18   10   11 ar
    19   10   16 1
    20   11   12 ar
    21   11   36 1
    22   12   13 ar
    23   12   37 1
    24   13   14 ar
    25   13   38 1
    26   14   15 1
    27   17   18 ar
    28   17   39 1
    29   18   19 ar
    30   19   20 ar
    31   19   21 1
    32   21   22 1
    33   21   40 1
    34   22   23 1
    35   22   41 1
    36   22   42 1
    37   23   24 1
    38   23   43 1
    39   23   44 1
    40   24   25 1
    41   24   45 1
    42   24   46 1
    43   25   30 1
    44   25   26 1
    45   26   27 1
    46   26   47 1
    47   26   48 1
    48   27   28 1
    49   27   49 1
    50   27   50 1
    51   28   29 1
    52   28   31 1
    53   28   58 1
    54   29   30 1
    55   29   51 1
    56   29   52 1
    57   30   53 1
    58   30   54 1
    59   31   55 1
    60   31   56 1
    61   31   57 1
@<TRIPOS>MOLECULE
CHEMBL299194__1
   58    61     0     0     0
SMALL
USER_CHARGES

@<TRIPOS>ATOM
      1 C1         -0.0178    1.4608    0.0101 C.3       1 <0>         0.0703
      2 N1          0.0021   -0.0041    0.0020 N.am      1 <0>        -0.5067
      3 C2         -1.1808   -0.6992    0.0039 C.ar      1 <0>         0.4680
      4 C3         -1.1793   -2.1109   -0.0037 C.ar      1 <0>        -0.2719
      5 C4          0.0431   -2.8209   -0.0135 C.2       1 <0>         0.0227
      6 C5          1.2184   -2.1187   -0.0153 C.2       1 <0>        -0.1520
      7 C6          1.1813   -0.6547   -0.0127 C.2       1 <0>         0.5552
      8 O1          2.2223   -0.0221   -0.0197 O.2       1 <0>        -0.4948
      9 C7          2.5161   -2.8335   -0.0249 C.ar      1 <0>        -0.0166
     10 C8          3.1327   -3.1828    1.1772 C.ar      1 <0>        -0.0062
     11 C9          4.3424   -3.8490    1.1613 C.ar      1 <0>        -0.1049
     12 C10         4.9428   -4.1701   -0.0429 C.ar      1 <0>        -0.0843
     13 C11         4.3369   -3.8268   -1.2380 C.ar      1 <0>        -0.1049
     14 C12         3.1243   -3.1655   -1.2361 C.ar      1 <0>        -0.0061
     15 Cl1         2.3618   -2.7423   -2.7372 Cl        1 <0>        -0.0513
     16 Cl2         2.3811   -2.7803    2.6894 Cl        1 <0>        -0.0512
     17 C13        -2.4105   -2.7832   -0.0019 C.ar      1 <0>         0.2668
     18 N2         -3.5204   -2.0689    0.0069 N.ar      1 <0>        -0.5838
     19 C14        -3.4836   -0.7410    0.0139 C.ar      1 <0>         0.6080
     20 N3         -2.3465   -0.0625    0.0125 N.ar      1 <0>        -0.5984
     21 N4         -4.6746   -0.0428    0.0225 N.pl3     1 <0>        -0.6968
     22 C15        -5.9482   -0.7668    0.0237 C.3       1 <0>         0.1428
     23 C16        -7.1044    0.2351    0.0338 C.3       1 <0>        -0.1661
     24 C17        -8.4345   -0.5211    0.0350 C.3       1 <0>        -0.0029
     25 N5         -9.5447    0.4409    0.0447 N.4       1 <0>        -0.3864
     26 C18        -9.5251    1.1981    1.3032 C.3       1 <0>        -0.0073
     27 C19       -10.6700    2.2134    1.3058 C.3       1 <0>         0.0244
     28 N6        -11.9495    1.5049    1.1601 N.3       1 <0>        -0.5437
     29 C20       -11.9742    0.7223   -0.0837 C.3       1 <0>         0.0237
     30 C21       -10.8185   -0.2807   -0.0748 C.3       1 <0>        -0.0017
     31 C22       -13.0794    2.4421    1.2150 C.3       1 <0>         0.0192
     32 H1          1.0048    1.8381    0.0023 H         1 <0>         0.1021
     33 H2         -0.5450    1.8219   -0.8730 H         1 <0>         0.0795
     34 H3         -0.5280    1.8123    0.9069 H         1 <0>         0.0796
     35 H4          0.0498   -3.9008   -0.0190 H         1 <0>         0.1520
     36 H5          4.8208   -4.1196    2.0909 H         1 <0>         0.1453
     37 H6          5.8889   -4.6908   -0.0499 H         1 <0>         0.1474
     38 H7          4.8111   -4.0800   -2.1748 H         1 <0>         0.1453
     39 H8         -2.4493   -3.8625   -0.0079 H         1 <0>         0.1880
     40 H9         -4.6681    0.9272    0.0277 H         1 <0>         0.4175
     41 H10        -6.0137   -1.3883   -0.8694 H         1 <0>         0.0816
     42 H11        -6.0065   -1.3979    0.9105 H         1 <0>         0.0819
     43 H12        -7.0389    0.8565    0.9269 H         1 <0>         0.0954
     44 H13        -7.0461    0.8662   -0.8531 H         1 <0>         0.0952
     45 H14        -8.5000   -1.1425   -0.8581 H         1 <0>         0.1375
     46 H15        -8.4928   -1.1521    0.9219 H         1 <0>         0.1369
     47 H16        -9.6457    0.5123    2.1418 H         1 <0>         0.1395
     48 H17        -8.5742    1.7227    1.3968 H         1 <0>         0.1360
     49 H18       -10.6647    2.7651    2.2458 H         1 <0>         0.1239
     50 H19       -10.5422    2.9078    0.4753 H         1 <0>         0.0605
     51 H20       -12.9204    0.1862   -0.1573 H         1 <0>         0.1248
     52 H21       -11.8679    1.3921   -0.9370 H         1 <0>         0.0606
     53 H22       -10.8265   -0.8524   -1.0027 H         1 <0>         0.1374
     54 H23       -10.9325   -0.9589    0.7709 H         1 <0>         0.1393
     55 H24       -12.9883    3.1686    0.4076 H         1 <0>         0.0398
     56 H25       -14.0137    1.8916    1.1048 H         1 <0>         0.0845
     57 H26       -13.0745    2.9614    2.1733 H         1 <0>         0.0847
     58 H27        -9.4448    1.0773   -0.7319 H         1 <0>         0.4209
@<TRIPOS>BOND
     1    1    2 1
     2    1   32 1
     3    1   33 1
     4    1   34 1
     5    2    7 am
     6    2    3 1
     7    3   20 ar
     8    3    4 ar
     9    4    5 1
    10    4   17 ar
    11    5    6 2
    12    5   35 1
    13    6    7 1
    14    6    9 1
    15    7    8 2
    16    9   14 ar
    17    9   10 ar
    18   10   11 ar
    19   10   16 1
    20   11   12 ar
    21   11   36 1
    22   12   13 ar
    23   12   37 1
    24   13   14 ar
    25   13   38 1
    26   14   15 1
    27   17   18 ar
    28   17   39 1
    29   18   19 ar
    30   19   20 ar
    31   19   21 1
    32   21   22 1
    33   21   40 1
    34   22   23 1
    35   22   41 1
    36   22   42 1
    37   23   24 1
    38   23   43 1
    39   23   44 1
    40   24   25 1
    41   24   45 1
    42   24   46 1
    43   25   30 1
    44   25   26 1
    45   25   58 1
    46   26   27 1
    47   26   47 1
    48   26   48 1
    49   27   28 1
    50   27   49 1
    51   27   50 1
    52   28   29 1
    53   28   31 1
    54   29   30 1
    55   29   51 1
    56   29   52 1
    57   30   53 1
    58   30   54 1
    59   31   55 1
    60   31   56 1
    61   31   57 1
@<TRIPOS>MOLECULE
CHEMBL107676
   59    61     0     0     0
SMALL
USER_CHARGES

@<TRIPOS>ATOM
      1 C1         -0.2636    1.4449    0.0366 C.3       1 <0>        -0.1884
      2 C2         -0.0339   -0.0673   -0.0010 C.3       1 <0>        -0.0164
      3 N1          0.8228   -0.4606    1.1256 N.4       1 <0>        -0.3865
      4 C3          0.1113   -0.2220    2.3885 C.3       1 <0>        -0.0150
      5 C4          1.0526   -0.4946    3.5635 C.3       1 <0>        -0.1885
      6 C5          1.1556   -1.8870    1.0130 C.3       1 <0>        -0.0138
      7 C6          2.0039   -2.1155   -0.2396 C.3       1 <0>        -0.1456
      8 C7          2.3506   -3.6011   -0.3568 C.3       1 <0>        -0.1303
      9 C8          3.1989   -3.8295   -1.6095 C.3       1 <0>         0.1256
     10 N2          3.5308   -5.2520   -1.7217 N.pl3     1 <0>        -0.7208
     11 C9          4.2982   -5.7033   -2.7856 C.ar      1 <0>         0.4425
     12 C10         4.7493   -4.7946   -3.7329 C.ar      1 <0>        -0.2988
     13 C11         5.5176   -5.2574   -4.7942 C.ar      1 <0>         0.2711
     14 C12         5.8060   -6.6385   -4.8608 C.ar      1 <0>        -0.2312
     15 C13         6.5852   -7.1465   -5.9272 C.2       1 <0>         0.0232
     16 C14         7.0491   -6.2838   -6.8826 C.2       1 <0>        -0.1605
     17 C15         6.7318   -4.8573   -6.7837 C.2       1 <0>         0.5514
     18 O1          7.1417   -4.0845   -7.6314 O.2       1 <0>        -0.5073
     19 N3          5.9880   -4.3965   -5.7590 N.am      1 <0>        -0.5221
     20 C16         5.6772   -2.9675   -5.6716 C.3       1 <0>         0.0652
     21 C17         7.8674   -6.7892   -8.0094 C.ar      1 <0>        -0.0130
     22 C18         9.2564   -6.8553   -7.8924 C.ar      1 <0>        -0.0072
     23 C19        10.0134   -7.3279   -8.9465 C.ar      1 <0>        -0.1057
     24 C20         9.3976   -7.7353  -10.1163 C.ar      1 <0>        -0.0863
     25 C21         8.0212   -7.6724  -10.2388 C.ar      1 <0>        -0.1057
     26 C22         7.2521   -7.2067   -9.1903 C.ar      1 <0>        -0.0071
     27 Cl1         5.5244   -7.1347   -9.3436 Cl        1 <0>        -0.0518
     28 Cl2        10.0311   -6.3440   -6.4254 Cl        1 <0>        -0.0517
     29 C23         5.3105   -7.4850   -3.8619 C.ar      1 <0>         0.2359
     30 N4          4.5915   -6.9960   -2.8748 N.ar      1 <0>        -0.5564
     31 H1          0.6976    1.9575    0.0745 H         1 <0>         0.0798
     32 H2         -0.8045    1.7526   -0.8583 H         1 <0>         0.1064
     33 H3         -0.8475    1.7018    0.9204 H         1 <0>         0.0809
     34 H4         -0.9917   -0.5823    0.0738 H         1 <0>         0.1296
     35 H5          0.4518   -0.3378   -0.9386 H         1 <0>         0.1315
     36 H6         -0.2256    0.8139    2.4255 H         1 <0>         0.1324
     37 H7         -0.7502   -0.8867    2.4513 H         1 <0>         0.1293
     38 H8          0.5619   -0.2124    4.4950 H         1 <0>         0.1066
     39 H9          1.3017   -1.5554    3.5909 H         1 <0>         0.0803
     40 H10         1.9645    0.0898    3.4417 H         1 <0>         0.0797
     41 H11         1.7165   -2.1998    1.8937 H         1 <0>         0.1339
     42 H12         0.2373   -2.4698    0.9412 H         1 <0>         0.1311
     43 H13         1.4430   -1.8026   -1.1203 H         1 <0>         0.0912
     44 H14         2.9223   -1.5327   -0.1678 H         1 <0>         0.0914
     45 H15         2.9115   -3.9139    0.5239 H         1 <0>         0.0848
     46 H16         1.4322   -4.1839   -0.4287 H         1 <0>         0.0845
     47 H17         2.6380   -3.5167   -2.4902 H         1 <0>         0.0687
     48 H18         4.1172   -3.2467   -1.5376 H         1 <0>         0.0694
     49 H19         3.2139   -5.8783   -1.0522 H         1 <0>         0.4102
     50 H20         4.5069   -3.7457   -3.6468 H         1 <0>         0.1397
     51 H21         6.8109   -8.2010   -5.9861 H         1 <0>         0.1474
     52 H22         6.4537   -2.4612   -5.0983 H         1 <0>         0.0747
     53 H23         5.6315   -2.5437   -6.6748 H         1 <0>         0.0961
     54 H24         4.7151   -2.8345   -5.1769 H         1 <0>         0.0818
     55 H25        11.0885   -7.3792   -8.8574 H         1 <0>         0.1444
     56 H26         9.9942   -8.1037  -10.9377 H         1 <0>         0.1465
     57 H27         7.5466   -7.9916  -11.1549 H         1 <0>         0.1444
     58 H28         5.5228   -8.5433   -3.8996 H         1 <0>         0.1763
     59 H29         1.6714    0.0850    1.1094 H         1 <0>         0.4223
@<TRIPOS>BOND
     1    1    2 1
     2    1   31 1
     3    1   32 1
     4    1   33 1
     5    2    3 1
     6    2   34 1
     7    2   35 1
     8    3    4 1
     9    3    6 1
    10    3   59 1
    11    4    5 1
    12    4   36 1
    13    4   37 1
    14    5   38 1
    15    5   39 1
    16    5   40 1
    17    6    7 1
    18    6   41 1
    19    6   42 1
    20    7    8 1
    21    7   43 1
    22    7   44 1
    23    8    9 1
    24    8   45 1
    25    8   46 1
    26    9   10 1
    27    9   47 1
    28    9   48 1
    29   10   11 1
    30   10   49 1
    31   11   30 ar
    32   11   12 ar
    33   12   13 ar
    34   12   50 1
    35   13   19 1
    36   13   14 ar
    37   14   15 1
    38   14   29 ar
    39   15   16 2
    40   15   51 1
    41   16   17 1
    42   16   21 1
    43   17   18 2
    44   17   19 am
    45   19   20 1
    46   20   52 1
    47   20   53 1
    48   20   54 1
    49   21   26 ar
    50   21   22 ar
    51   22   23 ar
    52   22   28 1
    53   23   24 ar
    54   23   55 1
    55   24   25 ar
    56   24   56 1
    57   25   26 ar
    58   25   57 1
    59   26   27 1
    60   29   30 ar
    61   29   58 1
@<TRIPOS>MOLECULE
CHEMBL325589
   40    43     0     0     0
SMALL
USER_CHARGES

@<TRIPOS>ATOM
      1 C1         -0.0376    1.3942    0.6396 C.3       1 <0>         0.0695
      2 N1         -0.0089   -0.0407    0.3459 N.am      1 <0>        -0.5059
      3 C2         -1.1848   -0.7126    0.1265 C.ar      1 <0>         0.4669
      4 C3         -1.1747   -2.0954   -0.1581 C.ar      1 <0>        -0.2748
      5 C4          0.0492   -2.8000   -0.2194 C.2       1 <0>         0.0297
      6 C5          1.2176   -2.1212    0.0009 C.2       1 <0>        -0.1618
      7 C6          1.1721   -0.6859    0.2887 C.2       1 <0>         0.5575
      8 O1          2.2072   -0.0734    0.4814 O.2       1 <0>        -0.5012
      9 C7          2.5167   -2.8313   -0.0559 C.ar      1 <0>        -0.0109
     10 C8          3.0472   -3.4150    1.0952 C.ar      1 <0>        -0.0066
     11 C9          4.2587   -4.0754    1.0354 C.ar      1 <0>        -0.1061
     12 C10         4.9462   -4.1586   -0.1620 C.ar      1 <0>        -0.0871
     13 C11         4.4261   -3.5817   -1.3067 C.ar      1 <0>        -0.1059
     14 C12         3.2123   -2.9241   -1.2620 C.ar      1 <0>        -0.0067
     15 Cl1         2.5576   -2.2076   -2.7013 Cl        1 <0>        -0.0500
     16 Cl2         2.1865   -3.3108    2.5993 Cl        1 <0>        -0.0504
     17 C13        -2.3991   -2.7446   -0.3766 C.ar      1 <0>         0.2655
     18 N2         -3.5107   -2.0364   -0.3073 N.ar      1 <0>        -0.5718
     19 C14        -3.4821   -0.7361   -0.0371 C.ar      1 <0>         0.6086
     20 N3         -2.3518   -0.0802    0.1764 N.ar      1 <0>        -0.5925
     21 N4         -4.6756   -0.0424    0.0231 N.pl3     1 <0>        -0.6235
     22 C15        -5.8893   -0.7290   -0.0813 C.ar      1 <0>         0.1065
     23 C16        -6.0454   -1.9822    0.5068 C.ar      1 <0>        -0.0645
     24 C17        -7.2665   -2.6225    0.3763 C.ar      1 <0>        -0.1513
     25 C18        -8.2825   -2.0026   -0.3275 C.ar      1 <0>         0.0850
     26 N5         -8.1027   -0.8156   -0.8729 N.ar      1 <0>        -0.4645
     27 C19        -6.9588   -0.1691   -0.7679 C.ar      1 <0>         0.0829
     28 H1          0.9807    1.7570    0.7794 H         1 <0>         0.1011
     29 H2         -0.5018    1.9259   -0.1911 H         1 <0>         0.0807
     30 H3         -0.6131    1.5676    1.5489 H         1 <0>         0.0806
     31 H4          0.0624   -3.8579   -0.4364 H         1 <0>         0.1511
     32 H5          4.6704   -4.5276    1.9256 H         1 <0>         0.1440
     33 H6          5.8933   -4.6758   -0.2033 H         1 <0>         0.1457
     34 H7          4.9682   -3.6496   -2.2383 H         1 <0>         0.1440
     35 H8         -2.4312   -3.8013   -0.5973 H         1 <0>         0.1887
     36 H9         -4.6715    0.9207    0.1378 H         1 <0>         0.4293
     37 H10        -5.2342   -2.4431    1.0507 H         1 <0>         0.1410
     38 H11        -7.4232   -3.5952    0.8189 H         1 <0>         0.1402
     39 H12        -9.2366   -2.4976   -0.4322 H         1 <0>         0.1595
     40 H13        -6.8508    0.8039   -1.2241 H         1 <0>         0.1574
@<TRIPOS>BOND
     1    1    2 1
     2    1   28 1
     3    1   29 1
     4    1   30 1
     5    2    7 am
     6    2    3 1
     7    3   20 ar
     8    3    4 ar
     9    4    5 1
    10    4   17 ar
    11    5    6 2
    12    5   31 1
    13    6    7 1
    14    6    9 1
    15    7    8 2
    16    9   14 ar
    17    9   10 ar
    18   10   11 ar
    19   10   16 1
    20   11   12 ar
    21   11   32 1
    22   12   13 ar
    23   12   33 1
    24   13   14 ar
    25   13   34 1
    26   14   15 1
    27   17   18 ar
    28   17   35 1
    29   18   19 ar
    30   19   20 ar
    31   19   21 1
    32   21   22 1
    33   21   36 1
    34   22   27 ar
    35   22   23 ar
    36   23   24 ar
    37   23   37 1
    38   24   25 ar
    39   24   38 1
    40   25   26 ar
    41   25   39 1
    42   26   27 ar
    43   27   40 1
@<TRIPOS>MOLECULE
CHEMBL191913
   58    62     0     0     0
SMALL
USER_CHARGES

@<TRIPOS>ATOM
      1 C1         -0.6424    1.7717   -0.1518 C.3       1 <0>        -0.1579
      2 C2         -0.2413    0.2953   -0.1602 C.3       1 <0>        -0.0227
      3 C3          0.7234    0.0222    0.9955 C.3       1 <0>        -0.1569
      4 C4         -1.4715   -0.5604   -0.0004 C.2       1 <0>        -0.0122
      5 C5         -2.3714   -0.5423    1.0825 C.2       1 <0>        -0.0970
      6 C6         -3.3508   -1.4829    0.8194 C.2       1 <0>         0.1192
      7 N1         -3.0860   -2.0636   -0.3630 N.pl3     1 <0>        -0.2296
      8 C7         -1.9351   -1.5065   -0.8888 C.2       1 <0>        -0.1093
      9 C8         -1.4723   -1.9715   -2.1439 C.2       1 <0>         0.5394
     10 N2         -2.1518   -2.9160   -2.7728 N.2       1 <0>        -0.6229
     11 C9         -3.2608   -3.4406   -2.2546 C.2       1 <0>         0.3350
     12 N3         -3.7371   -3.0640   -1.1000 N.2       1 <0>        -0.3419
     13 N4         -0.3260   -1.4449   -2.7044 N.pl3     1 <0>        -0.6145
     14 C10         0.0516   -1.8124   -4.0021 C.ar      1 <0>         0.0992
     15 C11        -0.8876   -2.3358   -4.8734 C.ar      1 <0>        -0.0422
     16 C12        -0.5078   -2.7008   -6.1670 C.ar      1 <0>        -0.1541
     17 C13         0.8204   -2.5349   -6.5740 C.ar      1 <0>         0.1852
     18 C14         1.7507   -2.0113   -5.6962 C.ar      1 <0>        -0.1741
     19 C15         1.3710   -1.6454   -4.4167 C.ar      1 <0>         0.1354
     20 F1          2.2839   -1.1289   -3.5652 F         1 <0>        -0.1187
     21 F2          1.1934   -2.8867   -7.8239 F         1 <0>        -0.0993
     22 C16        -1.5040   -3.2601   -7.1011 C.2       1 <0>         0.5754
     23 O1         -1.1712   -3.5771   -8.2267 O.2       1 <0>        -0.4974
     24 N5         -2.7829   -3.4193   -6.7065 N.am      1 <0>        -0.5941
     25 O2         -3.7388   -3.9559   -7.6029 O.3       1 <0>        -0.1369
     26 C17        -5.0526   -4.0687   -7.0523 C.3       1 <0>        -0.0032
     27 C18        -2.2850    0.3213    2.2791 C.2       1 <0>         0.2455
     28 N6         -1.3586    1.2177    2.5273 N.2       1 <0>        -0.2657
     29 N7         -1.6028    1.7780    3.6594 N.2       1 <0>        -0.2780
     30 C19        -2.6848    1.2666    4.1746 C.2       1 <0>         0.1724
     31 O3         -3.1459    0.3393    3.3161 O.3       1 <0>        -0.2195
     32 C20        -3.3096    1.6485    5.4918 C.3       1 <0>         0.0068
     33 C21        -4.3137    2.7815    5.2705 C.3       1 <0>        -0.1613
     34 C22        -4.0206    4.1258    5.9395 C.3       1 <0>        -0.1708
     35 C23        -5.1439    3.2345    6.4731 C.3       1 <0>        -0.1703
     36 H1          0.2474    2.3906   -0.2674 H         1 <0>         0.0661
     37 H2         -1.3297    1.9662   -0.9751 H         1 <0>         0.0486
     38 H3         -1.1306    2.0102    0.7931 H         1 <0>         0.0918
     39 H4          0.2469    0.0567   -1.1051 H         1 <0>         0.0594
     40 H5          0.2352    0.2608    1.9404 H         1 <0>         0.0895
     41 H6          1.0092   -1.0296    0.9895 H         1 <0>         0.0493
     42 H7          1.6132    0.6411    0.8799 H         1 <0>         0.0668
     43 H8         -4.1901   -1.7128    1.4590 H         1 <0>         0.1952
     44 H9         -3.7807   -4.2095   -2.8068 H         1 <0>         0.2257
     45 H10         0.2181   -0.8204   -2.1996 H         1 <0>         0.4310
     46 H11        -1.9115   -2.4620   -4.5538 H         1 <0>         0.1817
     47 H12         2.7759   -1.8835   -6.0109 H         1 <0>         0.1683
     48 H13        -3.0484   -3.1664   -5.8085 H         1 <0>         0.4067
     49 H14        -5.0265   -4.7226   -6.1807 H         1 <0>         0.0588
     50 H15        -5.4082   -3.0819   -6.7557 H         1 <0>         0.0573
     51 H16        -5.7254   -4.4875   -7.8007 H         1 <0>         0.1167
     52 H17        -3.8234    0.7849    5.9141 H         1 <0>         0.1035
     53 H18        -2.5323    1.9811    6.1797 H         1 <0>         0.1152
     54 H19        -4.7936    2.7999    4.2920 H         1 <0>         0.1071
     55 H20        -3.1125    4.2031    6.5373 H         1 <0>         0.1012
     56 H21        -4.3076    5.0291    5.4011 H         1 <0>         0.0975
     57 H22        -6.1699    3.5514    6.2858 H         1 <0>         0.0993
     58 H23        -4.9748    2.7255    7.4220 H         1 <0>         0.1001
@<TRIPOS>BOND
     1    1    2 1
     2    1   36 1
     3    1   37 1
     4    1   38 1
     5    2    3 1
     6    2    4 1
     7    2   39 1
     8    3   40 1
     9    3   41 1
    10    3   42 1
    11    4    8 2
    12    4    5 1
    13    5    6 2
    14    5   27 1
    15    6    7 1
    16    6   43 1
    17    7   12 1
    18    7    8 1
    19    8    9 1
    20    9   10 2
    21    9   13 1
    22   10   11 1
    23   11   12 2
    24   11   44 1
    25   13   14 1
    26   13   45 1
    27   14   19 ar
    28   14   15 ar
    29   15   16 ar
    30   15   46 1
    31   16   17 ar
    32   16   22 1
    33   17   18 ar
    34   17   21 1
    35   18   19 ar
    36   18   47 1
    37   19   20 1
    38   22   23 2
    39   22   24 am
    40   24   25 1
    41   24   48 1
    42   25   26 1
    43   26   49 1
    44   26   50 1
    45   26   51 1
    46   27   31 1
    47   27   28 2
    48   28   29 1
    49   29   30 2
    50   30   31 1
    51   30   32 1
    52   32   33 1
    53   32   52 1
    54   32   53 1
    55   33   35 1
    56   33   34 1
    57   33   54 1
    58   34   35 1
    59   34   55 1
    60   34   56 1
    61   35   57 1
    62   35   58 1
@<TRIPOS>MOLECULE
CHEMBL51028
   76    80     0     0     0
SMALL
USER_CHARGES

@<TRIPOS>ATOM
      1 C1         -0.0178    1.4648    0.0101 C.3       1 <0>        -0.0458
      2 N1          0.0021   -0.0041    0.0020 N.4       1 <0>        -0.3885
      3 C2         -1.3761   -0.5122    0.0107 C.3       1 <0>        -0.0026
      4 C3         -1.3560   -2.0421   -0.0167 C.3       1 <0>         0.0253
      5 N2         -0.6244   -2.5407    1.1564 N.3       1 <0>        -0.5394
      6 C4          0.7499   -2.0201    1.1745 C.3       1 <0>         0.0194
      7 C5          0.7125   -0.4904    1.1921 C.3       1 <0>        -0.0028
      8 C6         -0.6316   -4.0091    1.1963 C.3       1 <0>         0.0600
      9 C7         -0.0856   -4.4853    2.5439 C.3       1 <0>        -0.1331
     10 C8         -0.0931   -6.0148    2.5855 C.3       1 <0>         0.1390
     11 N3          0.4297   -6.4708    3.8758 N.pl3     1 <0>        -0.6960
     12 C9          0.5190   -7.8231    4.1463 C.ar      1 <0>         0.5921
     13 N4          0.1274   -8.6879    3.2129 N.ar      1 <0>        -0.5717
     14 C10         0.1891   -9.9888    3.4132 C.ar      1 <0>         0.2660
     15 C11         0.6815  -10.4549    4.6442 C.ar      1 <0>        -0.2916
     16 C12         0.7788  -11.8260    4.9335 C.ar      1 <0>         0.0486
     17 C13         1.2765  -12.1945    6.1732 C.ar      1 <0>        -0.1626
     18 C14         1.6636  -11.1946    7.0907 C.ar      1 <0>         0.4865
     19 N5          1.5623   -9.9146    6.7961 N.ar      1 <0>        -0.4757
     20 C15         1.0903   -9.5054    5.6171 C.ar      1 <0>         0.4314
     21 N6          0.9939   -8.2041    5.3168 N.ar      1 <0>        -0.5614
     22 N7          2.1613  -11.5679    8.3308 N.am      1 <0>        -0.6589
     23 C16         2.5354  -10.6251    9.2184 C.2       1 <0>         0.6918
     24 O1          2.4366   -9.4477    8.9324 O.2       1 <0>        -0.5088
     25 N8          3.0189  -10.9877   10.4230 N.am      1 <0>        -0.7375
     26 C17         3.4255   -9.9630   11.3878 C.3       1 <0>         0.1650
     27 C18         2.2037   -9.4969   12.1820 C.3       1 <0>        -0.1301
     28 C19         2.6283   -8.4267   13.1896 C.3       1 <0>        -0.1169
     29 C20         3.6668   -9.0123   14.1485 C.3       1 <0>        -0.1231
     30 C21         4.8886   -9.4785   13.3542 C.3       1 <0>        -0.1158
     31 C22         4.4640  -10.5487   12.3466 C.3       1 <0>        -0.1265
     32 C23         1.4009  -13.6275    6.5327 C.ar      1 <0>        -0.0428
     33 C24         0.3399  -14.2890    7.1511 C.ar      1 <0>        -0.0131
     34 C25         0.4619  -15.6243    7.4831 C.ar      1 <0>        -0.1038
     35 C26         1.6330  -16.3052    7.2037 C.ar      1 <0>        -0.0820
     36 C27         2.6888  -15.6548    6.5911 C.ar      1 <0>        -0.1039
     37 C28         2.5773  -14.3212    6.2489 C.ar      1 <0>        -0.0132
     38 Cl1         3.9009  -13.5084    5.4736 Cl        1 <0>        -0.0436
     39 Cl2        -1.1305  -13.4360    7.5031 Cl        1 <0>        -0.0430
     40 H1          1.0047    1.8421    0.0024 H         1 <0>         0.1242
     41 H2         -0.5450    1.8259   -0.8730 H         1 <0>         0.1243
     42 H3         -0.5280    1.8163    0.9069 H         1 <0>         0.1232
     43 H4         -1.8832   -0.1716    0.9134 H         1 <0>         0.1378
     44 H5         -1.9060   -0.1400   -0.8661 H         1 <0>         0.1361
     45 H6         -2.3783   -2.4196    0.0047 H         1 <0>         0.1246
     46 H7         -0.8610   -2.3831   -0.9260 H         1 <0>         0.0615
     47 H8          1.2641   -2.3816    2.0650 H         1 <0>         0.1256
     48 H9          1.2796   -2.3607    0.2848 H         1 <0>         0.0617
     49 H10         1.7310   -0.1020    1.1912 H         1 <0>         0.1357
     50 H11         0.1947   -0.1499    2.0888 H         1 <0>         0.1379
     51 H12        -1.6519   -4.3710    1.0694 H         1 <0>         0.0940
     52 H13        -0.0057   -4.3975    0.3929 H         1 <0>         0.0521
     53 H14         0.9347   -4.1235    2.6709 H         1 <0>         0.0712
     54 H15        -0.7115   -4.0969    3.3473 H         1 <0>         0.0851
     55 H16        -1.1134   -6.3766    2.4585 H         1 <0>         0.0720
     56 H17         0.5328   -6.4032    1.7821 H         1 <0>         0.0689
     57 H18         0.7132   -5.8235    4.5404 H         1 <0>         0.4164
     58 H19        -0.1317  -10.6811    2.6488 H         1 <0>         0.1807
     59 H20         0.4748  -12.5700    4.2122 H         1 <0>         0.1524
     60 H21         2.2401  -12.5073    8.5590 H         1 <0>         0.4133
     61 H22         3.0977  -11.9272   10.6512 H         1 <0>         0.3952
     62 H23         3.8586   -9.1154   10.8567 H         1 <0>         0.0904
     63 H24         1.4638   -9.0796   11.4989 H         1 <0>         0.0680
     64 H25         1.7706  -10.3445   12.7131 H         1 <0>         0.0632
     65 H26         3.0614   -7.5790   12.6585 H         1 <0>         0.0645
     66 H27         1.7579   -8.0946   13.7554 H         1 <0>         0.0652
     67 H28         3.9693   -8.2499   14.8663 H         1 <0>         0.0650
     68 H29         3.2337   -9.8599   14.6796 H         1 <0>         0.0632
     69 H30         5.3217   -8.6308   12.8231 H         1 <0>         0.0656
     70 H31         5.6285   -9.8957   14.0373 H         1 <0>         0.0689
     71 H32         4.0309  -11.3963   12.8777 H         1 <0>         0.0688
     72 H33         5.3344  -10.8807   11.7808 H         1 <0>         0.0693
     73 H34        -0.3587  -16.1376    7.9622 H         1 <0>         0.1464
     74 H35         1.7234  -17.3492    7.4653 H         1 <0>         0.1481
     75 H36         3.6007  -16.1919    6.3759 H         1 <0>         0.1463
     76 H37         0.4748   -0.3293   -0.8280 H         1 <0>         0.4224
@<TRIPOS>BOND
     1    1    2 1
     2    1   40 1
     3    1   41 1
     4    1   42 1
     5    2    7 1
     6    2    3 1
     7    2   76 1
     8    3    4 1
     9    3   43 1
    10    3   44 1
    11    4    5 1
    12    4   45 1
    13    4   46 1
    14    5    6 1
    15    5    8 1
    16    6    7 1
    17    6   47 1
    18    6   48 1
    19    7   49 1
    20    7   50 1
    21    8    9 1
    22    8   51 1
    23    8   52 1
    24    9   10 1
    25    9   53 1
    26    9   54 1
    27   10   11 1
    28   10   55 1
    29   10   56 1
    30   11   12 1
    31   11   57 1
    32   12   21 ar
    33   12   13 ar
    34   13   14 ar
    35   14   15 ar
    36   14   58 1
    37   15   20 ar
    38   15   16 ar
    39   16   17 ar
    40   16   59 1
    41   17   18 ar
    42   17   32 1
    43   18   19 ar
    44   18   22 1
    45   19   20 ar
    46   20   21 ar
    47   22   23 am
    48   22   60 1
    49   23   24 2
    50   23   25 am
    51   25   26 1
    52   25   61 1
    53   26   31 1
    54   26   27 1
    55   26   62 1
    56   27   28 1
    57   27   63 1
    58   27   64 1
    59   28   29 1
    60   28   65 1
    61   28   66 1
    62   29   30 1
    63   29   67 1
    64   29   68 1
    65   30   31 1
    66   30   69 1
    67   30   70 1
    68   31   71 1
    69   31   72 1
    70   32   37 ar
    71   32   33 ar
    72   33   34 ar
    73   33   39 1
    74   34   35 ar
    75   34   73 1
    76   35   36 ar
    77   35   74 1
    78   36   37 ar
    79   36   75 1
    80   37   38 1
@<TRIPOS>MOLECULE
CHEMBL51028__1
   76    80     0     0     0
SMALL
USER_CHARGES

@<TRIPOS>ATOM
      1 C1         -0.0178    1.4648    0.0101 C.3       1 <0>         0.0193
      2 N1          0.0021   -0.0041    0.0020 N.3       1 <0>        -0.5437
      3 C2         -1.3607   -0.5489   -0.0764 C.3       1 <0>         0.0238
      4 C3         -1.2932   -2.0762   -0.1426 C.3       1 <0>        -0.0017
      5 N2         -0.6107   -2.5886    1.0529 N.4       1 <0>        -0.3863
      6 C4          0.7570   -2.0553    1.1043 C.3       1 <0>        -0.0075
      7 C5          0.7065   -0.5278    1.1808 C.3       1 <0>         0.0245
      8 C6         -0.5621   -4.0557    0.9977 C.3       1 <0>        -0.0026
      9 C7          0.0360   -4.5955    2.2984 C.3       1 <0>        -0.1662
     10 C8          0.0866   -6.1236    2.2409 C.3       1 <0>         0.1449
     11 N3          0.6594   -6.6404    3.4863 N.pl3     1 <0>        -0.7011
     12 C9          0.8060   -8.0028    3.6663 C.ar      1 <0>         0.5902
     13 N4          0.4229   -8.8207    2.6882 N.ar      1 <0>        -0.5743
     14 C10         0.5383  -10.1284    2.8022 C.ar      1 <0>         0.2676
     15 C11         1.0794  -10.6528    3.9886 C.ar      1 <0>        -0.2884
     16 C12         1.2353  -12.0347    4.1860 C.ar      1 <0>         0.0470
     17 C13         1.7783  -12.4621    5.3871 C.ar      1 <0>        -0.1576
     18 C14         2.1514  -11.5085    6.3582 C.ar      1 <0>         0.4882
     19 N5          1.9949  -10.2172    6.1497 N.ar      1 <0>        -0.4753
     20 C15         1.4776   -9.7522    5.0111 C.ar      1 <0>         0.4306
     21 N6          1.3249   -8.4391    4.7982 N.ar      1 <0>        -0.5574
     22 N7          2.6947  -11.9406    7.5595 N.am      1 <0>        -0.6583
     23 C16         3.0561  -11.0427    8.4973 C.2       1 <0>         0.6921
     24 O1          2.9061   -9.8541    8.2907 O.2       1 <0>        -0.5094
     25 N8          3.5839  -11.4625    9.6643 N.am      1 <0>        -0.7368
     26 C17         3.9768  -10.4865   10.6837 C.3       1 <0>         0.1649
     27 C18         2.7594  -10.1200   11.5349 C.3       1 <0>        -0.1299
     28 C19         3.1698   -9.1006   12.5995 C.3       1 <0>        -0.1169
     29 C20         4.2539   -9.7056   13.4938 C.3       1 <0>        -0.1234
     30 C21         5.4713  -10.0721   12.6426 C.3       1 <0>        -0.1159
     31 C22         5.0609  -11.0914   11.5779 C.3       1 <0>        -0.1267
     32 C23         1.9653  -13.9092    5.6499 C.ar      1 <0>        -0.0458
     33 C24         0.9461  -14.6496    6.2488 C.ar      1 <0>        -0.0128
     34 C25         1.1264  -15.9976    6.4905 C.ar      1 <0>        -0.1034
     35 C26         2.3144  -16.6133    6.1402 C.ar      1 <0>        -0.0806
     36 C27         3.3290  -15.8844    5.5465 C.ar      1 <0>        -0.1034
     37 C28         3.1590  -14.5370    5.2942 C.ar      1 <0>        -0.0128
     38 Cl1         4.4309  -13.6255    4.5425 Cl        1 <0>        -0.0432
     39 Cl2        -0.5455  -13.8787    6.6897 Cl        1 <0>        -0.0433
     40 H1          1.0047    1.8421    0.0024 H         1 <0>         0.0845
     41 H2         -0.5450    1.8259   -0.8730 H         1 <0>         0.0841
     42 H3         -0.5280    1.8163    0.9069 H         1 <0>         0.0397
     43 H4         -1.9242   -0.2477    0.8067 H         1 <0>         0.0605
     44 H5         -1.8539   -0.1676   -0.9705 H         1 <0>         0.1243
     45 H6         -2.3035   -2.4830   -0.1865 H         1 <0>         0.1371
     46 H7         -0.7413   -2.3773   -1.0330 H         1 <0>         0.1389
     47 H8          1.2666   -2.4465    1.9848 H         1 <0>         0.1367
     48 H9          1.2983   -2.3564    0.2075 H         1 <0>         0.1393
     49 H10         1.7215   -0.1310    1.2040 H         1 <0>         0.1239
     50 H11         0.1771   -0.2262    2.0846 H         1 <0>         0.0606
     51 H12        -1.5711   -4.4482    0.8715 H         1 <0>         0.1369
     52 H13         0.0569   -4.3674    0.1563 H         1 <0>         0.1364
     53 H14         1.0451   -4.2031    2.4246 H         1 <0>         0.0953
     54 H15        -0.5829   -4.2839    3.1397 H         1 <0>         0.0951
     55 H16        -0.9224   -6.5160    2.1146 H         1 <0>         0.0784
     56 H17         0.7056   -6.4352    1.3995 H         1 <0>         0.0788
     57 H18         0.9356   -6.0264    4.1846 H         1 <0>         0.4175
     58 H19         0.2238  -10.7824    2.0023 H         1 <0>         0.1822
     59 H20         0.9406  -12.7423    3.4252 H         1 <0>         0.1539
     60 H21         2.8144  -12.8890    7.7244 H         1 <0>         0.4141
     61 H22         3.7036  -12.4109    9.8291 H         1 <0>         0.3957
     62 H23         4.3641   -9.5905   10.1987 H         1 <0>         0.0905
     63 H24         1.9871   -9.6890   10.8978 H         1 <0>         0.0675
     64 H25         2.3721  -11.0160   12.0199 H         1 <0>         0.0634
     65 H26         3.5571   -8.2046   12.1145 H         1 <0>         0.0645
     66 H27         2.3025   -8.8395   13.2060 H         1 <0>         0.0654
     67 H28         4.5462   -8.9794   14.2523 H         1 <0>         0.0653
     68 H29         3.8666  -10.6016   13.9788 H         1 <0>         0.0634
     69 H30         5.8585   -9.1761   12.1576 H         1 <0>         0.0657
     70 H31         6.2436  -10.5031   13.2797 H         1 <0>         0.0693
     71 H32         4.6736  -11.9875   12.0629 H         1 <0>         0.0691
     72 H33         5.9282  -11.3525   10.9715 H         1 <0>         0.0695
     73 H34         0.3382  -16.5720    6.9545 H         1 <0>         0.1469
     74 H35         2.4505  -17.6675    6.3313 H         1 <0>         0.1488
     75 H36         4.2545  -16.3708    5.2756 H         1 <0>         0.1470
     76 H37        -1.1152   -2.2999    1.8777 H         1 <0>         0.4210
@<TRIPOS>BOND
     1    1    2 1
     2    1   40 1
     3    1   41 1
     4    1   42 1
     5    2    7 1
     6    2    3 1
     7    3    4 1
     8    3   43 1
     9    3   44 1
    10    4    5 1
    11    4   45 1
    12    4   46 1
    13    5    6 1
    14    5    8 1
    15    5   76 1
    16    6    7 1
    17    6   47 1
    18    6   48 1
    19    7   49 1
    20    7   50 1
    21    8    9 1
    22    8   51 1
    23    8   52 1
    24    9   10 1
    25    9   53 1
    26    9   54 1
    27   10   11 1
    28   10   55 1
    29   10   56 1
    30   11   12 1
    31   11   57 1
    32   12   21 ar
    33   12   13 ar
    34   13   14 ar
    35   14   15 ar
    36   14   58 1
    37   15   20 ar
    38   15   16 ar
    39   16   17 ar
    40   16   59 1
    41   17   18 ar
    42   17   32 1
    43   18   19 ar
    44   18   22 1
    45   19   20 ar
    46   20   21 ar
    47   22   23 am
    48   22   60 1
    49   23   24 2
    50   23   25 am
    51   25   26 1
    52   25   61 1
    53   26   31 1
    54   26   27 1
    55   26   62 1
    56   27   28 1
    57   27   63 1
    58   27   64 1
    59   28   29 1
    60   28   65 1
    61   28   66 1
    62   29   30 1
    63   29   67 1
    64   29   68 1
    65   30   31 1
    66   30   69 1
    67   30   70 1
    68   31   71 1
    69   31   72 1
    70   32   37 ar
    71   32   33 ar
    72   33   34 ar
    73   33   39 1
    74   34   35 ar
    75   34   73 1
    76   35   36 ar
    77   35   74 1
    78   36   37 ar
    79   36   75 1
    80   37   38 1
@<TRIPOS>MOLECULE
CHEMBL253292
   60    62     0     0     0
SMALL
USER_CHARGES

@<TRIPOS>ATOM
      1 C1         -1.9845   -6.2695    2.4170 C.3       1 <0>        -0.1879
      2 C2         -2.6292   -7.6474    2.2540 C.3       1 <0>        -0.0172
      3 N1         -2.1680   -8.2586    1.0003 N.4       1 <0>        -0.3874
      4 C3         -0.7234   -8.5126    1.0817 C.3       1 <0>        -0.0154
      5 C4         -0.2200   -9.0314   -0.2667 C.3       1 <0>        -0.1896
      6 C5         -2.8768   -9.5270    0.7842 C.3       1 <0>        -0.0064
      7 C6         -4.3662   -9.2491    0.5716 C.3       1 <0>         0.0267
      8 O1         -4.5442   -8.5021   -0.6335 O.3       1 <0>        -0.3274
      9 C7         -5.8076   -8.0919   -0.9247 C.ar      1 <0>         0.0910
     10 C8         -6.8515   -8.3981   -0.0641 C.ar      1 <0>        -0.1809
     11 C9         -8.1347   -7.9816   -0.3588 C.ar      1 <0>        -0.1123
     12 C10        -8.3799   -7.2559   -1.5171 C.ar      1 <0>         0.1457
     13 C11        -7.3343   -6.9497   -2.3781 C.ar      1 <0>        -0.0725
     14 C12        -6.0508   -7.3625   -2.0792 C.ar      1 <0>        -0.1188
     15 N2         -9.6807   -6.8335   -1.8169 N.pl3     1 <0>        -0.6530
     16 C13       -10.1035   -6.7734   -3.1364 C.ar      1 <0>         0.4470
     17 C14       -11.3690   -6.2849   -3.4514 C.ar      1 <0>        -0.3192
     18 C15       -11.7453   -6.2453   -4.7891 C.ar      1 <0>         0.4578
     19 N3        -10.8887   -6.6725   -5.7145 N.ar      1 <0>        -0.5341
     20 C16        -9.6996   -7.1279   -5.3768 C.ar      1 <0>         0.3682
     21 N4         -9.3033   -7.1767   -4.1212 N.ar      1 <0>        -0.5880
     22 N5        -12.9987   -5.7666   -5.1555 N.am      1 <0>        -0.6589
     23 C17       -13.3952   -5.8316   -6.4419 C.2       1 <0>         0.6916
     24 O2        -12.6982   -6.3921   -7.2653 O.2       1 <0>        -0.4822
     25 N6        -14.5645   -5.2751   -6.8156 N.am      1 <0>        -0.6829
     26 C18       -15.0369   -5.4492   -8.1225 C.ar      1 <0>         0.1701
     27 C19       -14.2092   -5.1758   -9.2043 C.ar      1 <0>        -0.0192
     28 C20       -14.6789   -5.3488  -10.4928 C.ar      1 <0>        -0.0943
     29 C21       -15.9708   -5.7934  -10.7057 C.ar      1 <0>        -0.0968
     30 C22       -16.7973   -6.0665   -9.6314 C.ar      1 <0>        -0.0939
     31 C23       -16.3325   -5.9012   -8.3401 C.ar      1 <0>        -0.0412
     32 Cl1       -17.3687   -6.2512   -6.9919 Cl        1 <0>        -0.0507
     33 Cl2       -12.5873   -4.6170   -8.9381 Cl        1 <0>        -0.0249
     34 H1         -2.3266   -5.8160    3.3472 H         1 <0>         0.1064
     35 H2         -0.9000   -6.3764    2.4423 H         1 <0>         0.0813
     36 H3         -2.2675   -5.6344    1.5775 H         1 <0>         0.0811
     37 H4         -2.3462   -8.2825    3.0934 H         1 <0>         0.1307
     38 H5         -3.7136   -7.5405    2.2287 H         1 <0>         0.1282
     39 H6         -0.2052   -7.5867    1.3312 H         1 <0>         0.1333
     40 H7         -0.5284   -9.2574    1.8533 H         1 <0>         0.1295
     41 H8          0.8434   -9.2594   -0.1943 H         1 <0>         0.1065
     42 H9         -0.7677   -9.9345   -0.5360 H         1 <0>         0.0802
     43 H10        -0.3771   -8.2699   -1.0306 H         1 <0>         0.0820
     44 H11        -2.4707  -10.0246   -0.0965 H         1 <0>         0.1445
     45 H12        -2.7476  -10.1685    1.6559 H         1 <0>         0.1484
     46 H13        -4.9050  -10.1937    0.4965 H         1 <0>         0.1080
     47 H14        -4.7529   -8.6764    1.4146 H         1 <0>         0.0846
     48 H15        -6.6607   -8.9629    0.8365 H         1 <0>         0.1287
     49 H16        -8.9474   -8.2204    0.3112 H         1 <0>         0.1315
     50 H17        -7.5241   -6.3854   -3.2791 H         1 <0>         0.1497
     51 H18        -5.2368   -7.1206   -2.7465 H         1 <0>         0.1352
     52 H19       -10.2863   -6.5830   -1.1017 H         1 <0>         0.4225
     53 H20       -12.0408   -5.9460   -2.6766 H         1 <0>         0.1455
     54 H21        -9.0285   -7.4670   -6.1520 H         1 <0>         0.2024
     55 H22       -13.5874   -5.3860   -4.4851 H         1 <0>         0.4179
     56 H23       -15.0788   -4.7539   -6.1793 H         1 <0>         0.4109
     57 H24       -14.0361   -5.1361  -11.3342 H         1 <0>         0.1454
     58 H25       -16.3352   -5.9273  -11.7135 H         1 <0>         0.1469
     59 H26       -17.8059   -6.4133   -9.8013 H         1 <0>         0.1462
     60 H27        -2.3566   -7.6327    0.2317 H         1 <0>         0.4296
@<TRIPOS>BOND
     1    1    2 1
     2    1   34 1
     3    1   35 1
     4    1   36 1
     5    2    3 1
     6    2   37 1
     7    2   38 1
     8    3    4 1
     9    3    6 1
    10    3   60 1
    11    4    5 1
    12    4   39 1
    13    4   40 1
    14    5   41 1
    15    5   42 1
    16    5   43 1
    17    6    7 1
    18    6   44 1
    19    6   45 1
    20    7    8 1
    21    7   46 1
    22    7   47 1
    23    8    9 1
    24    9   14 ar
    25    9   10 ar
    26   10   11 ar
    27   10   48 1
    28   11   12 ar
    29   11   49 1
    30   12   13 ar
    31   12   15 1
    32   13   14 ar
    33   13   50 1
    34   14   51 1
    35   15   16 1
    36   15   52 1
    37   16   21 ar
    38   16   17 ar
    39   17   18 ar
    40   17   53 1
    41   18   19 ar
    42   18   22 1
    43   19   20 ar
    44   20   21 ar
    45   20   54 1
    46   22   23 am
    47   22   55 1
    48   23   24 2
    49   23   25 am
    50   25   26 1
    51   25   56 1
    52   26   31 ar
    53   26   27 ar
    54   27   28 ar
    55   27   33 1
    56   28   29 ar
    57   28   57 1
    58   29   30 ar
    59   29   58 1
    60   30   31 ar
    61   30   59 1
    62   31   32 1
@<TRIPOS>MOLECULE
CHEMBL313821
   58    62     0     0     0
SMALL
USER_CHARGES

@<TRIPOS>ATOM
      1 C1         -0.2810    1.1790    0.5097 C.3       1 <0>         0.0252
      2 O1         -0.2105   -0.2322    0.2965 O.3       1 <0>        -0.3049
      3 C2         -1.3842   -0.8840    0.0891 C.ar      1 <0>         0.1417
      4 C3         -2.5784   -0.1813    0.0847 C.ar      1 <0>        -0.2096
      5 C4         -3.7718   -0.8454   -0.1268 C.ar      1 <0>        -0.0794
      6 C5         -3.7824   -2.2136   -0.3353 C.ar      1 <0>        -0.1572
      7 C6         -2.6006   -2.9260   -0.3335 C.ar      1 <0>        -0.0683
      8 C7         -1.3911   -2.2657   -0.1265 C.ar      1 <0>        -0.0750
      9 C8         -0.1179   -3.0252   -0.1297 C.ar      1 <0>        -0.0161
     10 C9          0.9558   -2.5776   -0.9024 C.ar      1 <0>        -0.1050
     11 C10         2.1399   -3.2806   -0.9078 C.ar      1 <0>        -0.0714
     12 C11         2.2638   -4.4373   -0.1419 C.ar      1 <0>        -0.0760
     13 C12         1.1909   -4.8948    0.6374 C.ar      1 <0>         0.1313
     14 C13         0.0026   -4.1773    0.6418 C.ar      1 <0>        -0.1239
     15 N1          1.5707   -6.0567    1.2989 N.am      1 <0>        -0.6530
     16 C14         2.8364   -6.3970    1.0026 C.2       1 <0>         0.5582
     17 O2          3.4366   -7.3655    1.4336 O.2       1 <0>        -0.5194
     18 C15         3.3697   -5.3971    0.0682 C.2       1 <0>        -0.2340
     19 C16         4.6321   -5.3609   -0.4937 C.2       1 <0>         0.1096
     20 C17         5.6211   -6.2697   -0.0646 C.2       1 <0>        -0.0344
     21 C18         6.6208   -6.8268   -0.8504 C.2       1 <0>        -0.0557
     22 C19         7.3669   -7.6613   -0.0258 C.2       1 <0>        -0.1758
     23 C20         6.8313   -7.6102    1.2251 C.2       1 <0>         0.0635
     24 N2          5.7761   -6.7635    1.2146 N.pl3     1 <0>        -0.5070
     25 H1          5.2200   -6.5425    1.9780 H         1 <0>         0.4148
     26 C21         7.3687   -8.3891    2.4022 C.3       1 <0>        -0.0516
     27 C22         8.2808   -9.5012    1.8714 C.3       1 <0>        -0.1106
     28 C23         9.2909   -8.9080    0.8855 C.3       1 <0>        -0.1178
     29 C24         8.5665   -8.4953   -0.4016 C.3       1 <0>        -0.0479
     30 C25         6.8528   -6.5754   -2.3180 C.3       1 <0>        -0.0351
     31 C26         7.8029   -5.3883   -2.4881 C.3       1 <0>        -0.1709
     32 C27         8.0349   -5.1368   -3.9558 C.2       1 <0>         0.4893
     33 O3          7.4908   -5.8418   -4.7885 O.co2     1 <0>        -0.6980
     34 O4          8.7667   -4.2284   -4.3104 O.co2     1 <0>        -0.7077
     35 H2          0.7234    1.5741    0.6618 H         1 <0>         0.1018
     36 H3         -0.7310    1.6560   -0.3610 H         1 <0>         0.0558
     37 H4         -0.8892    1.3834    1.3908 H         1 <0>         0.0540
     38 H5         -2.5767    0.8864    0.2471 H         1 <0>         0.1291
     39 H6         -4.7005   -0.2942   -0.1292 H         1 <0>         0.1241
     40 H7         -4.7190   -2.7255   -0.4995 H         1 <0>         0.1251
     41 H8         -2.6128   -3.9936   -0.4962 H         1 <0>         0.1313
     42 H9          0.8574   -1.6807   -1.4958 H         1 <0>         0.1286
     43 H10         2.9709   -2.9357   -1.5051 H         1 <0>         0.1324
     44 H11        -0.8301   -4.5156    1.2406 H         1 <0>         0.1236
     45 H12         0.9957   -6.5578    1.8982 H         1 <0>         0.4124
     46 H13         4.8608   -4.6365   -1.2614 H         1 <0>         0.1535
     47 H14         7.9391   -7.7254    3.0519 H         1 <0>         0.0753
     48 H15         6.5416   -8.8280    2.9603 H         1 <0>         0.0725
     49 H16         8.8132   -9.9622    2.7033 H         1 <0>         0.0662
     50 H17         7.6778  -10.2544    1.3643 H         1 <0>         0.0668
     51 H18         9.7644   -8.0338    1.3323 H         1 <0>         0.0629
     52 H19        10.0511   -9.6533    0.6516 H         1 <0>         0.0642
     53 H20         8.2408   -9.3848   -0.9409 H         1 <0>         0.0673
     54 H21         9.2383   -7.9100   -1.0295 H         1 <0>         0.0743
     55 H22         7.2941   -7.4621   -2.7732 H         1 <0>         0.0731
     56 H23         5.9025   -6.3526   -2.8032 H         1 <0>         0.0666
     57 H24         7.3616   -4.5016   -2.0329 H         1 <0>         0.0538
     58 H25         8.7532   -5.6110   -2.0030 H         1 <0>         0.0573
@<TRIPOS>BOND
     1    1    2 1
     2    1   35 1
     3    1   36 1
     4    1   37 1
     5    2    3 1
     6    3    8 ar
     7    3    4 ar
     8    4    5 ar
     9    4   38 1
    10    5    6 ar
    11    5   39 1
    12    6    7 ar
    13    6   40 1
    14    7    8 ar
    15    7   41 1
    16    8    9 1
    17    9   14 ar
    18    9   10 ar
    19   10   11 ar
    20   10   42 1
    21   11   12 ar
    22   11   43 1
    23   12   18 1
    24   12   13 ar
    25   13   14 ar
    26   13   15 1
    27   14   44 1
    28   15   16 am
    29   15   45 1
    30   16   17 2
    31   16   18 1
    32   18   19 2
    33   19   20 1
    34   19   46 1
    35   20   24 1
    36   20   21 2
    37   21   22 1
    38   21   30 1
    39   22   29 1
    40   22   23 2
    41   23   24 1
    42   23   26 1
    43   24   25 1
    44   26   27 1
    45   26   47 1
    46   26   48 1
    47   27   28 1
    48   27   49 1
    49   27   50 1
    50   28   29 1
    51   28   51 1
    52   28   52 1
    53   29   53 1
    54   29   54 1
    55   30   31 1
    56   30   55 1
    57   30   56 1
    58   31   32 1
    59   31   57 1
    60   31   58 1
    61   32   33 2
    62   32   34 1
@<TRIPOS>MOLECULE
CHEMBL418284
   73    76     0     0     0
SMALL
USER_CHARGES

@<TRIPOS>ATOM
      1 C1         -0.0187    1.5258    0.0104 C.3       1 <0>        -0.1867
      2 C2          0.0021   -0.0041    0.0020 C.3       1 <0>         0.0272
      3 C3         -1.4338   -0.5331    0.0090 C.3       1 <0>        -0.1410
      4 C4         -2.1483   -0.0378    1.2697 C.3       1 <0>        -0.1406
      5 C5         -1.3582   -0.4872    2.5022 C.3       1 <0>        -0.1444
      6 C6          0.0749    0.0401    2.4028 C.3       1 <0>        -0.0193
      7 N1          0.7121   -0.4897    1.1914 N.4       1 <0>        -0.3788
      8 C7          2.1109   -0.0440    1.1407 C.3       1 <0>        -0.0072
      9 C8          2.8827   -0.6521    2.3136 C.3       1 <0>        -0.1653
     10 C9          4.3396   -0.1879    2.2609 C.3       1 <0>         0.1448
     11 N2          5.0786   -0.7701    3.3839 N.pl3     1 <0>        -0.7009
     12 C10         6.4225   -0.4914    3.5455 C.ar      1 <0>         0.5903
     13 N3          7.0174    0.3137    2.6679 N.ar      1 <0>        -0.5746
     14 C11         8.2959    0.6158    2.7703 C.ar      1 <0>         0.2673
     15 C12         9.0312    0.0671    3.8349 C.ar      1 <0>        -0.2888
     16 C13        10.3972    0.3413    4.0127 C.ar      1 <0>         0.0468
     17 C14        11.0422   -0.2432    5.0909 C.ar      1 <0>        -0.1580
     18 C15        10.3157   -1.0827    5.9622 C.ar      1 <0>         0.4886
     19 N4          9.0346   -1.3251    5.7741 N.ar      1 <0>        -0.4747
     20 C16         8.3656   -0.7876    4.7524 C.ar      1 <0>         0.4307
     21 N5          7.0620   -1.0300    4.5662 N.ar      1 <0>        -0.5573
     22 N6         10.9652   -1.6660    7.0405 N.am      1 <0>        -0.6588
     23 C17        10.2857   -2.4702    7.8818 C.2       1 <0>         0.6933
     24 O1          9.1035   -2.6845    7.6959 O.2       1 <0>        -0.5053
     25 N7         10.9166   -3.0368    8.9293 N.am      1 <0>        -0.7335
     26 C18        10.1780   -3.9110    9.8439 C.3       1 <0>         0.1878
     27 C19         9.6113   -5.1005    9.0662 C.3       1 <0>        -0.1657
     28 C20        11.1206   -4.4187   10.9369 C.3       1 <0>        -0.1566
     29 C21         9.0306   -3.1268   10.4837 C.3       1 <0>        -0.1657
     30 C22        12.4837    0.0108    5.3270 C.ar      1 <0>        -0.0457
     31 C23        13.4448   -0.8189    4.7495 C.ar      1 <0>        -0.0128
     32 C24        14.7862   -0.5767    4.9729 C.ar      1 <0>        -0.1034
     33 C25        15.1772    0.4860    5.7673 C.ar      1 <0>        -0.0807
     34 C26        14.2290    1.3121    6.3431 C.ar      1 <0>        -0.1035
     35 C27        12.8846    1.0840    6.1227 C.ar      1 <0>        -0.0128
     36 Cl1        11.6963    2.1263    6.8405 Cl        1 <0>        -0.0433
     37 Cl2        12.9561   -2.1535    3.7527 Cl        1 <0>        -0.0433
     38 H1          1.0039    1.9031    0.0027 H         1 <0>         0.0812
     39 H2         -0.5459    1.8868   -0.8726 H         1 <0>         0.1048
     40 H3         -0.5289    1.8773    0.9072 H         1 <0>         0.0845
     41 H4          0.5133   -0.3551   -0.8944 H         1 <0>         0.1373
     42 H5         -1.9598   -0.1699   -0.8739 H         1 <0>         0.1116
     43 H6         -1.4201   -1.6230    0.0028 H         1 <0>         0.0877
     44 H7         -2.2074    1.0504    1.2515 H         1 <0>         0.0837
     45 H8         -3.1533   -0.4580    1.3079 H         1 <0>         0.0941
     46 H9         -1.8302   -0.0912    3.4014 H         1 <0>         0.1116
     47 H10        -1.3430   -1.5761    2.5477 H         1 <0>         0.0875
     48 H11         0.0585    1.1291    2.3577 H         1 <0>         0.1322
     49 H12         0.6401   -0.2778    3.2789 H         1 <0>         0.1312
     50 H13         2.5616   -0.3676    0.2025 H         1 <0>         0.1357
     51 H14         2.1484    1.0434    1.2059 H         1 <0>         0.1351
     52 H15         2.4320   -0.3285    3.2519 H         1 <0>         0.0951
     53 H16         2.8452   -1.7395    2.2485 H         1 <0>         0.0954
     54 H17         4.7903   -0.5114    1.3226 H         1 <0>         0.0782
     55 H18         4.3771    0.8995    2.3260 H         1 <0>         0.0780
     56 H19         4.6246   -1.3512    4.0141 H         1 <0>         0.4176
     57 H20         8.7681    1.2699    2.0522 H         1 <0>         0.1818
     58 H21        10.9286    0.9877    3.3299 H         1 <0>         0.1534
     59 H22        11.9084   -1.4950    7.1888 H         1 <0>         0.4134
     60 H23        11.8599   -2.8659    9.0777 H         1 <0>         0.3951
     61 H24        10.4287   -5.6592    8.6103 H         1 <0>         0.0534
     62 H25         9.0617   -5.7509    9.7466 H         1 <0>         0.0648
     63 H26         8.9398   -4.7388    8.2875 H         1 <0>         0.0800
     64 H27        11.5243   -3.5712   11.4910 H         1 <0>         0.0632
     65 H28        10.5710   -5.0691   11.6174 H         1 <0>         0.0777
     66 H29        11.9380   -4.9774   10.4811 H         1 <0>         0.0632
     67 H30         8.3591   -2.7651    9.7050 H         1 <0>         0.0800
     68 H31         8.4810   -3.7772   11.1642 H         1 <0>         0.0648
     69 H32         9.4343   -2.2793   11.0378 H         1 <0>         0.0534
     70 H33        15.5313   -1.2186    4.5267 H         1 <0>         0.1469
     71 H34        16.2272    0.6712    5.9389 H         1 <0>         0.1488
     72 H35        14.5406    2.1401    6.9627 H         1 <0>         0.1469
     73 H36         0.6830   -1.4981    1.2108 H         1 <0>         0.4226
@<TRIPOS>BOND
     1    1    2 1
     2    1   38 1
     3    1   39 1
     4    1   40 1
     5    2    7 1
     6    2    3 1
     7    2   41 1
     8    3    4 1
     9    3   42 1
    10    3   43 1
    11    4    5 1
    12    4   44 1
    13    4   45 1
    14    5    6 1
    15    5   46 1
    16    5   47 1
    17    6    7 1
    18    6   48 1
    19    6   49 1
    20    7    8 1
    21    7   73 1
    22    8    9 1
    23    8   50 1
    24    8   51 1
    25    9   10 1
    26    9   52 1
    27    9   53 1
    28   10   11 1
    29   10   54 1
    30   10   55 1
    31   11   12 1
    32   11   56 1
    33   12   21 ar
    34   12   13 ar
    35   13   14 ar
    36   14   15 ar
    37   14   57 1
    38   15   20 ar
    39   15   16 ar
    40   16   17 ar
    41   16   58 1
    42   17   18 ar
    43   17   30 1
    44   18   19 ar
    45   18   22 1
    46   19   20 ar
    47   20   21 ar
    48   22   23 am
    49   22   59 1
    50   23   24 2
    51   23   25 am
    52   25   26 1
    53   25   60 1
    54   26   27 1
    55   26   28 1
    56   26   29 1
    57   27   61 1
    58   27   62 1
    59   27   63 1
    60   28   64 1
    61   28   65 1
    62   28   66 1
    63   29   67 1
    64   29   68 1
    65   29   69 1
    66   30   35 ar
    67   30   31 ar
    68   31   32 ar
    69   31   37 1
    70   32   33 ar
    71   32   70 1
    72   33   34 ar
    73   33   71 1
    74   34   35 ar
    75   34   72 1
    76   35   36 1
@<TRIPOS>MOLECULE
CHEMBL418284__1
   73    76     0     0     0
SMALL
USER_CHARGES

@<TRIPOS>ATOM
      1 C1         -0.0187    1.5258    0.0104 C.3       1 <0>        -0.1860
      2 C2          0.0021   -0.0041    0.0020 C.3       1 <0>         0.0275
      3 C3          0.7150   -0.4970   -1.2590 C.3       1 <0>        -0.1408
      4 C4          0.7331   -2.0282   -1.2631 C.3       1 <0>        -0.1391
      5 C5          1.4100   -2.5244    0.0178 C.3       1 <0>        -0.1459
      6 C6          0.6713   -1.9564    1.2315 C.3       1 <0>        -0.0121
      7 N1          0.7121   -0.4897    1.1914 N.4       1 <0>        -0.3799
      8 C7          0.0700    0.0497    2.3975 C.3       1 <0>        -0.0109
      9 C8          0.8813   -0.3528    3.6306 C.3       1 <0>        -0.1650
     10 C9          0.2125    0.2090    4.8868 C.3       1 <0>         0.1449
     11 N2          0.9893   -0.1765    6.0675 N.pl3     1 <0>        -0.7008
     12 C10         0.5765    0.2192    7.3257 C.ar      1 <0>         0.5902
     13 N3         -0.5340    0.9455    7.4340 N.ar      1 <0>        -0.5746
     14 C11        -0.9770    1.3518    8.6066 C.ar      1 <0>         0.2674
     15 C12        -0.2487    1.0013    9.7564 C.ar      1 <0>        -0.2888
     16 C13        -0.6558    1.3954   11.0416 C.ar      1 <0>         0.0467
     17 C14         0.1236    1.0040   12.1184 C.ar      1 <0>        -0.1580
     18 C15         1.2840    0.2335   11.8914 C.ar      1 <0>         0.4886
     19 N4          1.6454   -0.1235   10.6760 N.ar      1 <0>        -0.4747
     20 C16         0.9308    0.2261    9.6047 C.ar      1 <0>         0.4306
     21 N5          1.2962   -0.1429    8.3706 N.ar      1 <0>        -0.5572
     22 N6          2.0616   -0.1562   12.9723 N.am      1 <0>        -0.6589
     23 C17         3.1728   -0.8923   12.7724 C.2       1 <0>         0.6933
     24 O1          3.4937   -1.2147   11.6450 O.2       1 <0>        -0.5053
     25 N7          3.9282   -1.2709   13.8224 N.am      1 <0>        -0.7335
     26 C18         5.1360   -2.0710   13.6052 C.3       1 <0>         0.1878
     27 C19         6.1069   -1.2966   12.7115 C.3       1 <0>        -0.1657
     28 C20         5.8034   -2.3626   14.9507 C.3       1 <0>        -0.1565
     29 C21         4.7592   -3.3894   12.9264 C.3       1 <0>        -0.1657
     30 C22        -0.2580    1.3920   13.4976 C.ar      1 <0>        -0.0457
     31 C23         0.2080    2.5882   14.0429 C.ar      1 <0>        -0.0128
     32 C24        -0.1516    2.9442   15.3282 C.ar      1 <0>        -0.1034
     33 C25        -0.9719    2.1173   16.0741 C.ar      1 <0>        -0.0807
     34 C26        -1.4369    0.9295   15.5392 C.ar      1 <0>        -0.1035
     35 C27        -1.0893    0.5650   14.2530 C.ar      1 <0>        -0.0128
     36 Cl1        -1.6798   -0.9227   13.5809 Cl        1 <0>        -0.0433
     37 Cl2         1.2381    3.6272   13.1085 Cl        1 <0>        -0.0433
     38 H1          1.0039    1.9031    0.0027 H         1 <0>         0.0812
     39 H2         -0.5459    1.8868   -0.8726 H         1 <0>         0.1060
     40 H3         -0.5289    1.8773    0.9072 H         1 <0>         0.0838
     41 H4         -1.0207   -0.3809    0.0109 H         1 <0>         0.1360
     42 H5          0.1853   -0.1368   -2.1409 H         1 <0>         0.1117
     43 H6          1.7381   -0.1209   -1.2693 H         1 <0>         0.0878
     44 H7         -0.2890   -2.4047   -1.3045 H         1 <0>         0.0818
     45 H8          1.2891   -2.3839   -2.1305 H         1 <0>         0.0947
     46 H9          1.3771   -3.6135    0.0485 H         1 <0>         0.1123
     47 H10         2.4475   -2.1904    0.0340 H         1 <0>         0.0874
     48 H11        -0.3659   -2.2912    1.2144 H         1 <0>         0.1290
     49 H12         1.1506   -2.3079    2.1452 H         1 <0>         0.1315
     50 H13         0.0261    1.1368    2.3304 H         1 <0>         0.1391
     51 H14        -0.9405   -0.3502    2.4809 H         1 <0>         0.1342
     52 H15         0.9252   -1.4399    3.6976 H         1 <0>         0.0949
     53 H16         1.8918    0.0471    3.5472 H         1 <0>         0.0952
     54 H17         0.1686    1.2961    4.8197 H         1 <0>         0.0781
     55 H18        -0.7980   -0.1910    4.9702 H         1 <0>         0.0781
     56 H19         1.7934   -0.7095    5.9663 H         1 <0>         0.4176
     57 H20        -1.8789    1.9409    8.6824 H         1 <0>         0.1818
     58 H21        -1.5487    1.9856   11.1861 H         1 <0>         0.1535
     59 H22         1.8055    0.1010   13.8718 H         1 <0>         0.4135
     60 H23         3.6721   -1.0137   14.7219 H         1 <0>         0.3951
     61 H24         6.3753   -0.3573   13.1950 H         1 <0>         0.0534
     62 H25         7.0055   -1.8919   12.5499 H         1 <0>         0.0648
     63 H26         5.6314   -1.0889   11.7529 H         1 <0>         0.0800
     64 H27         5.1118   -2.9143   15.5873 H         1 <0>         0.0632
     65 H28         6.7021   -2.9579   14.7890 H         1 <0>         0.0777
     66 H29         6.0719   -1.4234   15.4342 H         1 <0>         0.0632
     67 H30         4.2837   -3.1817   11.9679 H         1 <0>         0.0799
     68 H31         5.6578   -3.9847   12.7648 H         1 <0>         0.0648
     69 H32         4.0675   -3.9412   13.5631 H         1 <0>         0.0534
     70 H33         0.2089    3.8700   15.7518 H         1 <0>         0.1469
     71 H34        -1.2502    2.4000   17.0786 H         1 <0>         0.1488
     72 H35        -2.0769    0.2880   16.1268 H         1 <0>         0.1469
     73 H36         1.6724   -0.1818    1.1577 H         1 <0>         0.4206
@<TRIPOS>BOND
     1    1    2 1
     2    1   38 1
     3    1   39 1
     4    1   40 1
     5    2    7 1
     6    2    3 1
     7    2   41 1
     8    3    4 1
     9    3   42 1
    10    3   43 1
    11    4    5 1
    12    4   44 1
    13    4   45 1
    14    5    6 1
    15    5   46 1
    16    5   47 1
    17    6    7 1
    18    6   48 1
    19    6   49 1
    20    7    8 1
    21    7   73 1
    22    8    9 1
    23    8   50 1
    24    8   51 1
    25    9   10 1
    26    9   52 1
    27    9   53 1
    28   10   11 1
    29   10   54 1
    30   10   55 1
    31   11   12 1
    32   11   56 1
    33   12   21 ar
    34   12   13 ar
    35   13   14 ar
    36   14   15 ar
    37   14   57 1
    38   15   20 ar
    39   15   16 ar
    40   16   17 ar
    41   16   58 1
    42   17   18 ar
    43   17   30 1
    44   18   19 ar
    45   18   22 1
    46   19   20 ar
    47   20   21 ar
    48   22   23 am
    49   22   59 1
    50   23   24 2
    51   23   25 am
    52   25   26 1
    53   25   60 1
    54   26   27 1
    55   26   28 1
    56   26   29 1
    57   27   61 1
    58   27   62 1
    59   27   63 1
    60   28   64 1
    61   28   65 1
    62   28   66 1
    63   29   67 1
    64   29   68 1
    65   29   69 1
    66   30   35 ar
    67   30   31 ar
    68   31   32 ar
    69   31   37 1
    70   32   33 ar
    71   32   70 1
    72   33   34 ar
    73   33   71 1
    74   34   35 ar
    75   34   72 1
    76   35   36 1
@<TRIPOS>MOLECULE
CHEMBL51283
   59    63     0     0     0
SMALL
USER_CHARGES

@<TRIPOS>ATOM
      1 C1         -0.0332    1.3908    0.6136 C.3       1 <0>         0.0690
      2 N1         -0.0055   -0.0383    0.2926 N.am      1 <0>        -0.5059
      3 C2         -1.1828   -0.7081    0.0740 C.ar      1 <0>         0.4674
      4 C3         -1.1737   -2.0852   -0.2368 C.ar      1 <0>        -0.2719
      5 C4          0.0505   -2.7863   -0.3254 C.2       1 <0>         0.0237
      6 C5          1.2203   -2.1096   -0.1056 C.2       1 <0>        -0.1538
      7 C6          1.1758   -0.6801    0.2096 C.2       1 <0>         0.5554
      8 O1          2.2120   -0.0694    0.4021 O.2       1 <0>        -0.4960
      9 C7          2.5198   -2.8161   -0.1907 C.ar      1 <0>        -0.0151
     10 C8          3.0643   -3.4205    0.9431 C.ar      1 <0>        -0.0064
     11 C9          4.2759   -4.0779    0.8569 C.ar      1 <0>        -0.1053
     12 C10         4.9495   -4.1376   -0.3498 C.ar      1 <0>        -0.0851
     13 C11         4.4153   -3.5405   -1.4774 C.ar      1 <0>        -0.1052
     14 C12         3.2017   -2.8849   -1.4062 C.ar      1 <0>        -0.0064
     15 Cl1         2.5298   -2.1419   -2.8240 Cl        1 <0>        -0.0508
     16 Cl2         2.2210   -3.3457    2.4586 Cl        1 <0>        -0.0509
     17 C13        -2.3995   -2.7325   -0.4536 C.ar      1 <0>         0.2620
     18 N2         -3.5114   -2.0279   -0.3583 N.ar      1 <0>        -0.5740
     19 C14        -3.4819   -0.7327   -0.0638 C.ar      1 <0>         0.6062
     20 N3         -2.3501   -0.0788    0.1491 N.ar      1 <0>        -0.5927
     21 N4         -4.6753   -0.0428    0.0231 N.pl3     1 <0>        -0.6305
     22 C15        -5.8911   -0.7305   -0.0815 C.ar      1 <0>         0.1275
     23 C16        -6.0348   -1.9801    0.5070 C.ar      1 <0>        -0.0569
     24 C17        -7.2331   -2.6581    0.4039 C.ar      1 <0>        -0.1651
     25 C18        -8.2950   -2.0901   -0.2879 C.ar      1 <0>         0.1845
     26 C19        -8.1514   -0.8402   -0.8760 C.ar      1 <0>        -0.1643
     27 C20        -6.9545   -0.1602   -0.7688 C.ar      1 <0>        -0.0924
     28 N5         -9.5094   -2.7774   -0.3928 N.pl3     1 <0>        -0.6452
     29 C21       -10.6079   -2.2507   -1.2175 C.3       1 <0>         0.1001
     30 C22       -11.0981   -3.3678   -2.1445 C.3       1 <0>        -0.0233
     31 N6        -11.4527   -4.5466   -1.3440 N.4       1 <0>        -0.3839
     32 C23       -10.2556   -5.0797   -0.6815 C.3       1 <0>        -0.0232
     33 C24        -9.7217   -4.0502    0.3135 C.3       1 <0>         0.0989
     34 C25       -12.0253   -5.5772   -2.2203 C.3       1 <0>        -0.0471
     35 H1          0.9861    1.7527    0.7486 H         1 <0>         0.1022
     36 H2         -0.5077    1.9372   -0.2015 H         1 <0>         0.0808
     37 H3         -0.5985    1.5459    1.5325 H         1 <0>         0.0809
     38 H4          0.0629   -3.8399   -0.5625 H         1 <0>         0.1509
     39 H5          4.6984   -4.5461    1.7336 H         1 <0>         0.1449
     40 H6          5.8970   -4.6523   -0.4117 H         1 <0>         0.1469
     41 H7          4.9462   -3.5907   -2.4166 H         1 <0>         0.1449
     42 H8         -2.4324   -3.7849   -0.6938 H         1 <0>         0.1867
     43 H9         -4.6715    0.9180    0.1565 H         1 <0>         0.4274
     44 H10        -5.2090   -2.4218    1.0449 H         1 <0>         0.1348
     45 H11        -7.3446   -3.6303    0.8609 H         1 <0>         0.1264
     46 H12        -8.9771   -0.3984   -1.4140 H         1 <0>         0.1275
     47 H13        -6.8440    0.8134   -1.2229 H         1 <0>         0.1318
     48 H14       -11.4247   -1.9238   -0.5740 H         1 <0>         0.0873
     49 H15       -10.2487   -1.4115   -1.8132 H         1 <0>         0.1261
     50 H16       -11.9744   -3.0251   -2.6948 H         1 <0>         0.1406
     51 H17       -10.3072   -3.6302   -2.8472 H         1 <0>         0.1325
     52 H18       -10.5112   -5.9986   -0.1537 H         1 <0>         0.1410
     53 H19        -9.4903   -5.2904   -1.4285 H         1 <0>         0.1325
     54 H20        -8.7769   -4.4003    0.7295 H         1 <0>         0.1271
     55 H21       -10.4475   -3.9082    1.1142 H         1 <0>         0.0870
     56 H22       -11.2931   -5.8582   -2.9773 H         1 <0>         0.1216
     57 H23       -12.2890   -6.4529   -1.6272 H         1 <0>         0.1251
     58 H24       -12.9186   -5.1853   -2.7066 H         1 <0>         0.1249
     59 H25       -12.1335   -4.2855   -0.6465 H         1 <0>         0.4246
@<TRIPOS>BOND
     1    1    2 1
     2    1   35 1
     3    1   36 1
     4    1   37 1
     5    2    7 am
     6    2    3 1
     7    3   20 ar
     8    3    4 ar
     9    4    5 1
    10    4   17 ar
    11    5    6 2
    12    5   38 1
    13    6    7 1
    14    6    9 1
    15    7    8 2
    16    9   14 ar
    17    9   10 ar
    18   10   11 ar
    19   10   16 1
    20   11   12 ar
    21   11   39 1
    22   12   13 ar
    23   12   40 1
    24   13   14 ar
    25   13   41 1
    26   14   15 1
    27   17   18 ar
    28   17   42 1
    29   18   19 ar
    30   19   20 ar
    31   19   21 1
    32   21   22 1
    33   21   43 1
    34   22   27 ar
    35   22   23 ar
    36   23   24 ar
    37   23   44 1
    38   24   25 ar
    39   24   45 1
    40   25   26 ar
    41   25   28 1
    42   26   27 ar
    43   26   46 1
    44   27   47 1
    45   28   33 1
    46   28   29 1
    47   29   30 1
    48   29   48 1
    49   29   49 1
    50   30   31 1
    51   30   50 1
    52   30   51 1
    53   31   32 1
    54   31   34 1
    55   31   59 1
    56   32   33 1
    57   32   52 1
    58   32   53 1
    59   33   54 1
    60   33   55 1
    61   34   56 1
    62   34   57 1
    63   34   58 1
@<TRIPOS>MOLECULE
CHEMBL51283__1
   58    62     0     0     0
SMALL
USER_CHARGES

@<TRIPOS>ATOM
      1 C1         -0.0331    1.3907    0.6129 C.3       1 <0>         0.0706
      2 N1         -0.0054   -0.0382    0.2912 N.am      1 <0>        -0.5065
      3 C2         -1.1828   -0.7080    0.0725 C.ar      1 <0>         0.4678
      4 C3         -1.1737   -2.0849   -0.2390 C.ar      1 <0>        -0.2827
      5 C4          0.0505   -2.7859   -0.3283 C.2       1 <0>         0.0341
      6 C5          1.2204   -2.1092   -0.1085 C.2       1 <0>        -0.1689
      7 C6          1.1758   -0.6799    0.2075 C.2       1 <0>         0.5583
      8 O1          2.2122   -0.0693    0.4000 O.2       1 <0>        -0.5051
      9 C7          2.5199   -2.8156   -0.1943 C.ar      1 <0>        -0.0080
     10 C8          3.0647   -3.4206    0.9389 C.ar      1 <0>        -0.0070
     11 C9          4.2763   -4.0779    0.8520 C.ar      1 <0>        -0.1065
     12 C10         4.9496   -4.1369   -0.3549 C.ar      1 <0>        -0.0883
     13 C11         4.4150   -3.5393   -1.4821 C.ar      1 <0>        -0.1065
     14 C12         3.2014   -2.8838   -1.4101 C.ar      1 <0>        -0.0070
     15 Cl1         2.5290   -2.1401   -2.8273 Cl        1 <0>        -0.0505
     16 Cl2         2.2219   -3.3467    2.4548 Cl        1 <0>        -0.0504
     17 C13        -2.3995   -2.7321   -0.4557 C.ar      1 <0>         0.2647
     18 N2         -3.5115   -2.0277   -0.3597 N.ar      1 <0>        -0.5676
     19 C14        -3.4819   -0.7326   -0.0645 C.ar      1 <0>         0.6098
     20 N3         -2.3500   -0.0788    0.1484 N.ar      1 <0>        -0.5990
     21 N4         -4.6753   -0.0428    0.0231 N.pl3     1 <0>        -0.6216
     22 C15        -5.8911   -0.7305   -0.0815 C.ar      1 <0>         0.0900
     23 C16        -6.0345   -1.9805    0.5062 C.ar      1 <0>        -0.0499
     24 C17        -7.2328   -2.6585    0.4032 C.ar      1 <0>        -0.1828
     25 C18        -8.2950   -2.0901   -0.2879 C.ar      1 <0>         0.2156
     26 C19        -8.1516   -0.8398   -0.8753 C.ar      1 <0>        -0.1824
     27 C20        -6.9548   -0.1599   -0.7681 C.ar      1 <0>        -0.0847
     28 N5         -9.5094   -2.7774   -0.3928 N.pl3     1 <0>        -0.6306
     29 C21       -10.6068   -2.2495   -1.2176 C.3       1 <0>         0.1259
     30 C22       -11.0858   -3.3597   -2.1590 C.3       1 <0>         0.0383
     31 N6        -11.4195   -4.5544   -1.3721 N.3       1 <0>        -0.5427
     32 C23       -10.2362   -5.0863   -0.6830 C.3       1 <0>         0.0379
     33 C24        -9.7202   -4.0499    0.3140 C.3       1 <0>         0.1252
     34 C25       -12.0442   -5.5825   -2.2151 C.3       1 <0>         0.0242
     35 H1          0.9862    1.7526    0.7478 H         1 <0>         0.0999
     36 H2         -0.5079    1.9375   -0.2018 H         1 <0>         0.0796
     37 H3         -0.5981    1.5453    1.5321 H         1 <0>         0.0799
     38 H4          0.0629   -3.8393   -0.5659 H         1 <0>         0.1490
     39 H5          4.6992   -4.5466    1.7283 H         1 <0>         0.1434
     40 H6          5.8971   -4.6516   -0.4174 H         1 <0>         0.1450
     41 H7          4.9457   -3.5890   -2.4214 H         1 <0>         0.1434
     42 H8         -2.4324   -3.7844   -0.6964 H         1 <0>         0.1856
     43 H9         -4.6715    0.9179    0.1571 H         1 <0>         0.4238
     44 H10        -5.2085   -2.4225    1.0437 H         1 <0>         0.1276
     45 H11        -7.3441   -3.6309    0.8597 H         1 <0>         0.1259
     46 H12        -8.9776   -0.3978   -1.4127 H         1 <0>         0.1268
     47 H13        -6.8445    0.8141   -1.2216 H         1 <0>         0.1245
     48 H14       -11.4289   -1.9343   -0.5751 H         1 <0>         0.0705
     49 H15       -10.2500   -1.4019   -1.8028 H         1 <0>         0.0865
     50 H16       -11.9697   -3.0218   -2.6998 H         1 <0>         0.0859
     51 H17       -10.2947   -3.6011   -2.8690 H         1 <0>         0.0387
     52 H18       -10.5040   -6.0006   -0.1534 H         1 <0>         0.0863
     53 H19        -9.4569   -5.3036   -1.4135 H         1 <0>         0.0386
     54 H20        -8.7775   -4.3921    0.7409 H         1 <0>         0.0875
     55 H21       -10.4554   -3.9111    1.1066 H         1 <0>         0.0703
     56 H22       -11.3552   -5.8687   -3.0098 H         1 <0>         0.0260
     57 H23       -12.2810   -6.4560   -1.6076 H         1 <0>         0.0705
     58 H24       -12.9599   -5.1858   -2.6535 H         1 <0>         0.0707
@<TRIPOS>BOND
     1    1    2 1
     2    1   35 1
     3    1   36 1
     4    1   37 1
     5    2    7 am
     6    2    3 1
     7    3   20 ar
     8    3    4 ar
     9    4    5 1
    10    4   17 ar
    11    5    6 2
    12    5   38 1
    13    6    7 1
    14    6    9 1
    15    7    8 2
    16    9   14 ar
    17    9   10 ar
    18   10   11 ar
    19   10   16 1
    20   11   12 ar
    21   11   39 1
    22   12   13 ar
    23   12   40 1
    24   13   14 ar
    25   13   41 1
    26   14   15 1
    27   17   18 ar
    28   17   42 1
    29   18   19 ar
    30   19   20 ar
    31   19   21 1
    32   21   22 1
    33   21   43 1
    34   22   27 ar
    35   22   23 ar
    36   23   24 ar
    37   23   44 1
    38   24   25 ar
    39   24   45 1
    40   25   26 ar
    41   25   28 1
    42   26   27 ar
    43   26   46 1
    44   27   47 1
    45   28   33 1
    46   28   29 1
    47   29   30 1
    48   29   48 1
    49   29   49 1
    50   30   31 1
    51   30   50 1
    52   30   51 1
    53   31   32 1
    54   31   34 1
    55   32   33 1
    56   32   52 1
    57   32   53 1
    58   33   54 1
    59   33   55 1
    60   34   56 1
    61   34   57 1
    62   34   58 1
@<TRIPOS>MOLECULE
CHEMBL191070
   82    85     0     0     0
SMALL
USER_CHARGES

@<TRIPOS>ATOM
      1 C1         -0.0187    1.5258    0.0104 C.3       1 <0>        -0.1656
      2 C2          0.0021   -0.0041    0.0020 C.3       1 <0>         0.1879
      3 C3          0.7421   -0.5109    1.2415 C.3       1 <0>        -0.1656
      4 C4         -1.4333   -0.5336    0.0129 C.3       1 <0>        -0.1558
      5 N1          0.6878   -0.4765   -1.2033 N.am      1 <0>        -0.7366
      6 C5          1.9715   -0.1323   -1.4270 C.2       1 <0>         0.6937
      7 O1          2.5604    0.5703   -0.6286 O.2       1 <0>        -0.5136
      8 N2          2.6023   -0.5669   -2.5359 N.am      1 <0>        -0.6664
      9 C6          3.9247   -0.2123   -2.7663 C.ar      1 <0>         0.4499
     10 C7          4.5693   -0.6712   -3.9356 C.ar      1 <0>        -0.1615
     11 C8          5.8881   -0.3212   -4.1717 C.ar      1 <0>         0.0292
     12 C9          6.5368    0.4880   -3.2221 C.ar      1 <0>        -0.2402
     13 C10         7.8708    0.8895   -3.3824 C.ar      1 <0>         0.2197
     14 N3          8.4455    1.6459   -2.4759 N.ar      1 <0>        -0.5395
     15 C11         7.8088    2.0618   -1.3834 C.ar      1 <0>         0.4095
     16 C12         6.4944    1.7182   -1.1375 C.ar      1 <0>        -0.2408
     17 C13         5.8226    0.9111   -2.0693 C.ar      1 <0>         0.2386
     18 N4          4.5491    0.5491   -1.8926 N.ar      1 <0>        -0.4810
     19 N5          8.4837    2.8609   -0.4679 N.pl3     1 <0>        -0.7210
     20 C14         7.7998    3.3283    0.7404 C.3       1 <0>         0.1251
     21 C15         8.7592    4.1828    1.5712 C.3       1 <0>        -0.1287
     22 C16         8.0449    4.6711    2.8331 C.3       1 <0>        -0.1153
     23 C17         9.0043    5.5256    3.6639 C.3       1 <0>        -0.1150
     24 C18         8.2901    6.0138    4.9258 C.3       1 <0>         0.0540
     25 N6          9.2112    6.8342    5.7235 N.3       1 <0>        -0.5384
     26 C19        10.3193    6.0230    6.2485 C.3       1 <0>         0.0142
     27 C20        11.2843    6.9261    7.0212 C.3       1 <0>         0.0624
     28 O2         10.5691    7.6021    8.0590 O.3       1 <0>        -0.3858
     29 C21         9.4833    8.4020    7.5831 C.3       1 <0>         0.0628
     30 C22         8.5000    7.5139    6.8160 C.3       1 <0>         0.0166
     31 C23         3.8387   -1.5231   -4.9046 C.ar      1 <0>         0.0422
     32 C24         3.1397   -2.6438   -4.4607 C.ar      1 <0>        -0.1990
     33 C25         2.4582   -3.4378   -5.3688 C.ar      1 <0>         0.1767
     34 C26         2.4715   -3.1183   -6.7187 C.ar      1 <0>        -0.2977
     35 C27         3.1664   -2.0032   -7.1640 C.ar      1 <0>         0.1765
     36 C28         3.8449   -1.2016   -6.2604 C.ar      1 <0>        -0.1741
     37 O3          3.1769   -1.6937   -8.4872 O.3       1 <0>        -0.3104
     38 C29         2.4514   -2.5601   -9.3619 C.3       1 <0>         0.0252
     39 O4          1.7762   -4.5310   -4.9368 O.3       1 <0>        -0.3112
     40 C30         1.0960   -5.3046   -5.9272 C.3       1 <0>         0.0251
     41 H1          1.0039    1.9031    0.0027 H         1 <0>         0.0812
     42 H2         -0.5459    1.8868   -0.8726 H         1 <0>         0.0525
     43 H3         -0.5289    1.8773    0.9072 H         1 <0>         0.0632
     44 H4          0.2319   -0.1594    2.1383 H         1 <0>         0.0631
     45 H5          0.7568   -1.6008    1.2356 H         1 <0>         0.0528
     46 H6          1.7647   -0.1336    1.2338 H         1 <0>         0.0812
     47 H7         -1.9605   -0.1726   -0.8702 H         1 <0>         0.0620
     48 H8         -1.4185   -1.6235    0.0069 H         1 <0>         0.0624
     49 H9         -1.9435   -0.1821    0.9097 H         1 <0>         0.0761
     50 H10         0.2179   -1.0371   -1.8404 H         1 <0>         0.3942
     51 H11         2.1325   -1.1275   -3.1729 H         1 <0>         0.4148
     52 H12         6.4032   -0.6599   -5.0584 H         1 <0>         0.1507
     53 H13         8.4269    0.5757   -4.2534 H         1 <0>         0.1686
     54 H14         5.9925    2.0642   -0.2459 H         1 <0>         0.1415
     55 H15         9.4075    3.1089   -0.6290 H         1 <0>         0.4056
     56 H16         6.9323    3.9254    0.4590 H         1 <0>         0.0668
     57 H17         7.4748    2.4704    1.3290 H         1 <0>         0.0662
     58 H18         9.6266    3.5858    1.8527 H         1 <0>         0.0703
     59 H19         9.0841    5.0408    0.9827 H         1 <0>         0.0719
     60 H20         7.1775    5.2681    2.5517 H         1 <0>         0.0683
     61 H21         7.7200    3.8131    3.4217 H         1 <0>         0.0657
     62 H22         9.8718    4.9285    3.9454 H         1 <0>         0.0631
     63 H23         9.3293    6.3835    3.0754 H         1 <0>         0.0727
     64 H24         7.4226    6.6108    4.6444 H         1 <0>         0.0770
     65 H25         7.9651    5.1558    5.5144 H         1 <0>         0.0358
     66 H26         9.9250    5.2565    6.9156 H         1 <0>         0.0428
     67 H27        10.8476    5.5495    5.4210 H         1 <0>         0.0889
     68 H28        12.0769    6.3204    7.4604 H         1 <0>         0.0983
     69 H29        11.7195    7.6593    6.3421 H         1 <0>         0.0602
     70 H30         8.9734    8.8636    8.4286 H         1 <0>         0.0988
     71 H31         9.8661    9.1780    6.9203 H         1 <0>         0.0604
     72 H32         7.7004    8.1286    6.4028 H         1 <0>         0.0869
     73 H33         8.0766    6.7711    7.4922 H         1 <0>         0.0431
     74 H34         3.1296   -2.8935   -3.4101 H         1 <0>         0.1348
     75 H35         1.9400   -3.7392   -7.4246 H         1 <0>         0.1373
     76 H36         4.3820   -0.3311   -6.6071 H         1 <0>         0.1380
     77 H37         2.8585   -3.5690   -9.2938 H         1 <0>         0.0570
     78 H38         1.4007   -2.5720   -9.0723 H         1 <0>         0.0566
     79 H39         2.5417   -2.2003  -10.3868 H         1 <0>         0.1045
     80 H40         0.3590   -4.6805   -6.4327 H         1 <0>         0.0570
     81 H41         1.8166   -5.6777   -6.6549 H         1 <0>         0.0571
     82 H42         0.5935   -6.1456   -5.4494 H         1 <0>         0.1043
@<TRIPOS>BOND
     1    1    2 1
     2    1   41 1
     3    1   42 1
     4    1   43 1
     5    2    3 1
     6    2    4 1
     7    2    5 1
     8    3   44 1
     9    3   45 1
    10    3   46 1
    11    4   47 1
    12    4   48 1
    13    4   49 1
    14    5    6 am
    15    5   50 1
    16    6    7 2
    17    6    8 am
    18    8    9 1
    19    8   51 1
    20    9   18 ar
    21    9   10 ar
    22   10   11 ar
    23   10   31 1
    24   11   12 ar
    25   11   52 1
    26   12   17 ar
    27   12   13 ar
    28   13   14 ar
    29   13   53 1
    30   14   15 ar
    31   15   16 ar
    32   15   19 1
    33   16   17 ar
    34   16   54 1
    35   17   18 ar
    36   19   20 1
    37   19   55 1
    38   20   21 1
    39   20   56 1
    40   20   57 1
    41   21   22 1
    42   21   58 1
    43   21   59 1
    44   22   23 1
    45   22   60 1
    46   22   61 1
    47   23   24 1
    48   23   62 1
    49   23   63 1
    50   24   25 1
    51   24   64 1
    52   24   65 1
    53   25   30 1
    54   25   26 1
    55   26   27 1
    56   26   66 1
    57   26   67 1
    58   27   28 1
    59   27   68 1
    60   27   69 1
    61   28   29 1
    62   29   30 1
    63   29   70 1
    64   29   71 1
    65   30   72 1
    66   30   73 1
    67   31   36 ar
    68   31   32 ar
    69   32   33 ar
    70   32   74 1
    71   33   34 ar
    72   33   39 1
    73   34   35 ar
    74   34   75 1
    75   35   36 ar
    76   35   37 1
    77   36   76 1
    78   37   38 1
    79   38   77 1
    80   38   78 1
    81   38   79 1
    82   39   40 1
    83   40   80 1
    84   40   81 1
    85   40   82 1
@<TRIPOS>MOLECULE
CHEMBL191070__1
   83    86     0     0     0
SMALL
USER_CHARGES

@<TRIPOS>ATOM
      1 C1         -0.0187    1.5258    0.0104 C.3       1 <0>        -0.1650
      2 C2          0.0021   -0.0041    0.0020 C.3       1 <0>         0.1877
      3 C3          0.7421   -0.5109    1.2415 C.3       1 <0>        -0.1649
      4 C4         -1.4333   -0.5336    0.0129 C.3       1 <0>        -0.1571
      5 N1          0.6878   -0.4765   -1.2033 N.am      1 <0>        -0.7357
      6 C5          1.9715   -0.1323   -1.4270 C.2       1 <0>         0.6958
      7 O1          2.5604    0.5703   -0.6286 O.2       1 <0>        -0.5179
      8 N2          2.6023   -0.5669   -2.5359 N.am      1 <0>        -0.6657
      9 C6          3.9247   -0.2123   -2.7663 C.ar      1 <0>         0.4529
     10 C7          4.5693   -0.6712   -3.9356 C.ar      1 <0>        -0.1539
     11 C8          5.8881   -0.3212   -4.1717 C.ar      1 <0>         0.0272
     12 C9          6.5368    0.4880   -3.2221 C.ar      1 <0>        -0.2368
     13 C10         7.8708    0.8895   -3.3824 C.ar      1 <0>         0.2224
     14 N3          8.4455    1.6459   -2.4759 N.ar      1 <0>        -0.5409
     15 C11         7.8088    2.0618   -1.3834 C.ar      1 <0>         0.4050
     16 C12         6.4944    1.7182   -1.1375 C.ar      1 <0>        -0.2386
     17 C13         5.8226    0.9111   -2.0693 C.ar      1 <0>         0.2372
     18 N4          4.5491    0.5491   -1.8926 N.ar      1 <0>        -0.4829
     19 N5          8.4837    2.8609   -0.4679 N.pl3     1 <0>        -0.7266
     20 C14         7.7998    3.3283    0.7404 C.3       1 <0>         0.1269
     21 C15         8.7592    4.1828    1.5712 C.3       1 <0>        -0.1313
     22 C16         8.0449    4.6711    2.8331 C.3       1 <0>        -0.1145
     23 C17         9.0043    5.5256    3.6639 C.3       1 <0>        -0.1482
     24 C18         8.2901    6.0138    4.9258 C.3       1 <0>        -0.0105
     25 N6          9.2112    6.8342    5.7235 N.4       1 <0>        -0.3859
     26 C19        10.3203    5.9988    6.2044 C.3       1 <0>        -0.0481
     27 C20        11.2787    6.8559    7.0350 C.3       1 <0>         0.0360
     28 O2         10.5602    7.4504    8.1195 O.3       1 <0>        -0.3567
     29 C21         9.4542    8.2556    7.7022 C.3       1 <0>         0.0355
     30 C22         8.4924    7.4011    6.8728 C.3       1 <0>        -0.0437
     31 C23         3.8387   -1.5231   -4.9046 C.ar      1 <0>         0.0367
     32 C24         3.1397   -2.6438   -4.4607 C.ar      1 <0>        -0.1996
     33 C25         2.4582   -3.4378   -5.3688 C.ar      1 <0>         0.1781
     34 C26         2.4715   -3.1183   -6.7187 C.ar      1 <0>        -0.2960
     35 C27         3.1664   -2.0032   -7.1640 C.ar      1 <0>         0.1781
     36 C28         3.8449   -1.2016   -6.2604 C.ar      1 <0>        -0.1738
     37 O3          3.1769   -1.6937   -8.4872 O.3       1 <0>        -0.3100
     38 C29         2.4514   -2.5601   -9.3619 C.3       1 <0>         0.0245
     39 O4          1.7762   -4.5310   -4.9368 O.3       1 <0>        -0.3110
     40 C30         1.0960   -5.3046   -5.9272 C.3       1 <0>         0.0243
     41 H1          1.0039    1.9031    0.0027 H         1 <0>         0.0797
     42 H2         -0.5459    1.8868   -0.8726 H         1 <0>         0.0533
     43 H3         -0.5289    1.8773    0.9072 H         1 <0>         0.0630
     44 H4          0.2319   -0.1594    2.1383 H         1 <0>         0.0629
     45 H5          0.7568   -1.6008    1.2356 H         1 <0>         0.0537
     46 H6          1.7647   -0.1336    1.2338 H         1 <0>         0.0797
     47 H7         -1.9605   -0.1726   -0.8702 H         1 <0>         0.0631
     48 H8         -1.4185   -1.6235    0.0069 H         1 <0>         0.0635
     49 H9         -1.9435   -0.1821    0.9097 H         1 <0>         0.0766
     50 H10         0.2179   -1.0371   -1.8404 H         1 <0>         0.3958
     51 H11         2.1325   -1.1275   -3.1729 H         1 <0>         0.4166
     52 H12         6.4032   -0.6599   -5.0584 H         1 <0>         0.1528
     53 H13         8.4269    0.5757   -4.2534 H         1 <0>         0.1705
     54 H14         5.9925    2.0642   -0.2459 H         1 <0>         0.1392
     55 H15         9.4075    3.1089   -0.6290 H         1 <0>         0.4051
     56 H16         6.9323    3.9254    0.4590 H         1 <0>         0.0670
     57 H17         7.4748    2.4704    1.3290 H         1 <0>         0.0669
     58 H18         9.6266    3.5858    1.8527 H         1 <0>         0.0749
     59 H19         9.0841    5.0408    0.9827 H         1 <0>         0.0752
     60 H20         7.1775    5.2681    2.5517 H         1 <0>         0.0798
     61 H21         7.7200    3.8131    3.4217 H         1 <0>         0.0794
     62 H22         9.8718    4.9285    3.9454 H         1 <0>         0.0879
     63 H23         9.3293    6.3835    3.0754 H         1 <0>         0.0884
     64 H24         7.4226    6.6108    4.6444 H         1 <0>         0.1339
     65 H25         7.9651    5.1558    5.5144 H         1 <0>         0.1318
     66 H26         9.9262    5.1916    6.8219 H         1 <0>         0.1393
     67 H27        10.8543    5.5778    5.3525 H         1 <0>         0.1432
     68 H28        12.0791    6.2294    7.4286 H         1 <0>         0.1418
     69 H29        11.7037    7.6390    6.4072 H         1 <0>         0.0810
     70 H30         8.9342    8.6422    8.5787 H         1 <0>         0.1422
     71 H31         9.8168    9.0867    7.0973 H         1 <0>         0.0811
     72 H32         7.6695    8.0212    6.5172 H         1 <0>         0.1429
     73 H33         8.0991    6.5934    7.4901 H         1 <0>         0.1390
     74 H34         3.1296   -2.8935   -3.4101 H         1 <0>         0.1344
     75 H35         1.9400   -3.7392   -7.4246 H         1 <0>         0.1386
     76 H36         4.3820   -0.3311   -6.6071 H         1 <0>         0.1378
     77 H37         2.8585   -3.5690   -9.2938 H         1 <0>         0.0579
     78 H38         1.4007   -2.5720   -9.0723 H         1 <0>         0.0574
     79 H39         2.5417   -2.2003  -10.3868 H         1 <0>         0.1058
     80 H40         1.8166   -5.6777   -6.6549 H         1 <0>         0.0580
     81 H41         0.5935   -6.1456   -5.4494 H         1 <0>         0.1055
     82 H42         0.3590   -4.6805   -6.4327 H         1 <0>         0.0578
     83 H43         9.5761    7.5820    5.1527 H         1 <0>         0.4228
@<TRIPOS>BOND
     1    1    2 1
     2    1   41 1
     3    1   42 1
     4    1   43 1
     5    2    3 1
     6    2    4 1
     7    2    5 1
     8    3   44 1
     9    3   45 1
    10    3   46 1
    11    4   47 1
    12    4   48 1
    13    4   49 1
    14    5    6 am
    15    5   50 1
    16    6    7 2
    17    6    8 am
    18    8    9 1
    19    8   51 1
    20    9   18 ar
    21    9   10 ar
    22   10   11 ar
    23   10   31 1
    24   11   12 ar
    25   11   52 1
    26   12   17 ar
    27   12   13 ar
    28   13   14 ar
    29   13   53 1
    30   14   15 ar
    31   15   16 ar
    32   15   19 1
    33   16   17 ar
    34   16   54 1
    35   17   18 ar
    36   19   20 1
    37   19   55 1
    38   20   21 1
    39   20   56 1
    40   20   57 1
    41   21   22 1
    42   21   58 1
    43   21   59 1
    44   22   23 1
    45   22   60 1
    46   22   61 1
    47   23   24 1
    48   23   62 1
    49   23   63 1
    50   24   25 1
    51   24   64 1
    52   24   65 1
    53   25   30 1
    54   25   26 1
    55   25   83 1
    56   26   27 1
    57   26   66 1
    58   26   67 1
    59   27   28 1
    60   27   68 1
    61   27   69 1
    62   28   29 1
    63   29   30 1
    64   29   70 1
    65   29   71 1
    66   30   72 1
    67   30   73 1
    68   31   36 ar
    69   31   32 ar
    70   32   33 ar
    71   32   74 1
    72   33   34 ar
    73   33   39 1
    74   34   35 ar
    75   34   75 1
    76   35   36 ar
    77   35   37 1
    78   36   76 1
    79   37   38 1
    80   38   77 1
    81   38   78 1
    82   38   79 1
    83   39   40 1
    84   40   80 1
    85   40   81 1
    86   40   82 1
@<TRIPOS>MOLECULE
CHEMBL7572
   38    41     0     0     0
SMALL
USER_CHARGES

@<TRIPOS>ATOM
      1 C1          2.8889    0.8036    0.0457 C.3       1 <0>        -0.1446
      2 C2          2.5359   -0.6566   -0.0725 C.2       1 <0>         0.4555
      3 O1          3.3465   -1.5005    0.2287 O.2       1 <0>        -0.4953
      4 O2          1.3207   -1.0199   -0.5124 O.3       1 <0>        -0.2942
      5 C3          1.0813   -2.3446   -0.7053 C.ar      1 <0>         0.0558
      6 C4          0.8261   -3.1694    0.3892 C.ar      1 <0>        -0.0826
      7 C5          0.5817   -4.5121    0.2127 C.ar      1 <0>        -0.1152
      8 C6          0.5882   -5.0590   -1.0672 C.ar      1 <0>         0.1222
      9 C7          0.8454   -4.2304   -2.1769 C.ar      1 <0>        -0.1098
     10 C8          1.0866   -2.8635   -1.9824 C.ar      1 <0>        -0.0547
     11 C9          0.7877   -5.0513   -3.3283 C.2       1 <0>        -0.0936
     12 C10         0.5071   -6.3187   -2.9201 C.2       1 <0>         0.0057
     13 N1          0.3837   -6.3342   -1.5450 N.pl3     1 <0>        -0.5708
     14 H1          0.1859   -7.1149   -1.0044 H         1 <0>         0.4234
     15 C11         0.3584   -7.4849   -3.8022 C.2       1 <0>         0.4813
     16 O3          0.8220   -7.4598   -4.9282 O.2       1 <0>        -0.4349
     17 C12        -0.3498   -8.6813   -3.3255 C.2       1 <0>        -0.0030
     18 C13        -1.0310   -8.7797   -2.1517 C.2       1 <0>        -0.1309
     19 C14        -1.5643  -10.0882   -2.0716 C.ar      1 <0>        -0.1194
     20 C15        -2.3393  -10.7544   -1.1128 C.ar      1 <0>        -0.0621
     21 C16        -2.7094  -12.0510   -1.3211 C.ar      1 <0>        -0.1438
     22 C17        -2.3245  -12.7198   -2.4766 C.ar      1 <0>        -0.0811
     23 C18        -1.5630  -12.0869   -3.4335 C.ar      1 <0>        -0.1320
     24 C19        -1.1732  -10.7641   -3.2444 C.ar      1 <0>         0.1166
     25 N2         -0.4351   -9.8833   -4.0002 N.pl3     1 <0>        -0.5598
     26 H2         -0.0383  -10.0753   -4.8642 H         1 <0>         0.4265
     27 H3          3.3257    1.1489   -0.8914 H         1 <0>         0.1085
     28 H4          1.9884    1.3789    0.2606 H         1 <0>         0.0972
     29 H5          3.6081    0.9393    0.8535 H         1 <0>         0.1059
     30 H6          0.8205   -2.7509    1.3847 H         1 <0>         0.1355
     31 H7          0.3852   -5.1419    1.0678 H         1 <0>         0.1346
     32 H8          1.2800   -2.2207   -2.8285 H         1 <0>         0.1376
     33 H9          0.9392   -4.7295   -4.3481 H         1 <0>         0.1605
     34 H10        -1.1444   -7.9994   -1.4137 H         1 <0>         0.1486
     35 H11        -2.6426  -10.2430   -0.2112 H         1 <0>         0.1273
     36 H12        -3.3067  -12.5624   -0.5808 H         1 <0>         0.1279
     37 H13        -2.6254  -13.7463   -2.6256 H         1 <0>         0.1312
     38 H14        -1.2690  -12.6154   -4.3283 H         1 <0>         0.1260
@<TRIPOS>BOND
     1    1    2 1
     2    1   27 1
     3    1   28 1
     4    1   29 1
     5    2    3 2
     6    2    4 1
     7    4    5 1
     8    5   10 ar
     9    5    6 ar
    10    6    7 ar
    11    6   30 1
    12    7    8 ar
    13    7   31 1
    14    8   13 1
    15    8    9 ar
    16    9   10 ar
    17    9   11 1
    18   10   32 1
    19   11   12 2
    20   11   33 1
    21   12   13 1
    22   12   15 1
    23   13   14 1
    24   15   16 2
    25   15   17 1
    26   17   25 1
    27   17   18 2
    28   18   19 1
    29   18   34 1
    30   19   24 ar
    31   19   20 ar
    32   20   21 ar
    33   20   35 1
    34   21   22 ar
    35   21   36 1
    36   22   23 ar
    37   22   37 1
    38   23   24 ar
    39   23   38 1
    40   24   25 1
    41   25   26 1
@<TRIPOS>MOLECULE
CHEMBL495749
   53    57     0     0     0
SMALL
USER_CHARGES

@<TRIPOS>ATOM
      1 C1         -0.2936    1.3564   -0.0893 C.3       1 <0>        -0.0509
      2 N1         -0.0767   -0.0882    0.0662 N.4       1 <0>        -0.3858
      3 C2         -1.3613   -0.7491    0.3263 C.3       1 <0>        -0.0101
      4 C3         -1.1529   -2.2628    0.4087 C.3       1 <0>        -0.1446
      5 C4         -0.1760   -2.5770    1.5454 C.3       1 <0>        -0.1617
      6 C5          1.1346   -1.8232    1.3019 C.3       1 <0>         0.0586
      7 C6          0.8415   -0.3258    1.1865 C.3       1 <0>        -0.0008
      8 O1          1.7338   -2.2870    0.0903 O.3       1 <0>        -0.3225
      9 C7          2.5164   -3.3923    0.1739 C.ar      1 <0>         0.1927
     10 C8          2.6208   -4.0843    1.3679 C.ar      1 <0>        -0.2400
     11 C9          3.4197   -5.2123    1.4542 C.ar      1 <0>        -0.0100
     12 C10         4.1231   -5.6650    0.3566 C.ar      1 <0>        -0.1879
     13 C11         4.0356   -4.9891   -0.8544 C.ar      1 <0>         0.2524
     14 C12         3.2214   -3.8458   -0.9508 C.ar      1 <0>        -0.1692
     15 C13         3.1308   -3.1417   -2.2335 C.2       1 <0>         0.3633
     16 C14         3.8592   -3.6459   -3.3150 C.2       1 <0>        -0.2641
     17 C15         4.6519   -4.8046   -3.1441 C.2       1 <0>         0.5724
     18 O2          5.2837   -5.2376   -4.0921 O.2       1 <0>        -0.5432
     19 N2          4.7353   -5.4326   -1.9596 N.am      1 <0>        -0.6318
     20 H1          5.2905   -6.2242   -1.8818 H         1 <0>         0.4254
     21 C16         3.8010   -2.9751   -4.6239 C.2       1 <0>         0.3769
     22 N3          4.5462   -3.3202   -5.7212 N.pl3     1 <0>        -0.5815
     23 H2          5.1959   -4.0386   -5.7731 H         1 <0>         0.4354
     24 C17         4.1979   -2.4525   -6.7411 C.ar      1 <0>         0.0472
     25 C18         4.6039   -2.3078   -8.0596 C.ar      1 <0>        -0.1070
     26 C19         4.0520   -1.3158   -8.8432 C.ar      1 <0>        -0.1029
     27 C20         3.0926   -0.4598   -8.3219 C.ar      1 <0>        -0.1217
     28 C21         2.6772   -0.5879   -7.0160 C.ar      1 <0>        -0.0771
     29 C22         3.2259   -1.5885   -6.2076 C.ar      1 <0>         0.0558
     30 N4          3.0230   -1.9585   -4.9188 N.2       1 <0>        -0.5259
     31 N5          2.3515   -2.0182   -2.3690 N.pl3     1 <0>        -0.8182
     32 H3          0.6589    1.8473   -0.2891 H         1 <0>         0.1264
     33 H4         -0.9754    1.5340   -0.9210 H         1 <0>         0.1279
     34 H5         -0.7251    1.7597    0.8268 H         1 <0>         0.1255
     35 H6         -1.7711   -0.3874    1.2694 H         1 <0>         0.1323
     36 H7         -2.0565   -0.5219   -0.4819 H         1 <0>         0.1347
     37 H8         -2.1075   -2.7515    0.6036 H         1 <0>         0.1168
     38 H9         -0.7434   -2.6256   -0.5340 H         1 <0>         0.0940
     39 H10        -0.6076   -2.2604    2.4949 H         1 <0>         0.1018
     40 H11         0.0196   -3.6490    1.5719 H         1 <0>         0.1044
     41 H12         1.8151   -1.9978    2.1353 H         1 <0>         0.1271
     42 H13         1.7726    0.2139    1.0133 H         1 <0>         0.1420
     43 H14         0.3848    0.0269    2.1112 H         1 <0>         0.1525
     44 H15         2.0770   -3.7429    2.2363 H         1 <0>         0.1407
     45 H16         3.4934   -5.7436    2.3915 H         1 <0>         0.1455
     46 H17         4.7427   -6.5458    0.4390 H         1 <0>         0.1473
     47 H18         5.3508   -2.9702   -8.4716 H         1 <0>         0.1248
     48 H19         4.3692   -1.2045   -9.8696 H         1 <0>         0.1326
     49 H20         2.6687    0.3133   -8.9456 H         1 <0>         0.1308
     50 H21         1.9302    0.0822   -6.6169 H         1 <0>         0.1254
     51 H22         2.2019   -1.4369   -1.6070 H         1 <0>         0.3914
     52 H23         1.9511   -1.8063   -3.2266 H         1 <0>         0.4276
     53 H24         0.3250   -0.4601   -0.7813 H         1 <0>         0.4256
@<TRIPOS>BOND
     1    1    2 1
     2    1   32 1
     3    1   33 1
     4    1   34 1
     5    2    7 1
     6    2    3 1
     7    2   53 1
     8    3    4 1
     9    3   35 1
    10    3   36 1
    11    4    5 1
    12    4   37 1
    13    4   38 1
    14    5    6 1
    15    5   39 1
    16    5   40 1
    17    6    7 1
    18    6    8 1
    19    6   41 1
    20    7   42 1
    21    7   43 1
    22    8    9 1
    23    9   14 ar
    24    9   10 ar
    25   10   11 ar
    26   10   44 1
    27   11   12 ar
    28   11   45 1
    29   12   13 ar
    30   12   46 1
    31   13   19 1
    32   13   14 ar
    33   14   15 1
    34   15   16 2
    35   15   31 1
    36   16   17 1
    37   16   21 1
    38   17   18 2
    39   17   19 am
    40   19   20 1
    41   21   30 2
    42   21   22 1
    43   22   23 1
    44   22   24 1
    45   24   29 ar
    46   24   25 ar
    47   25   26 ar
    48   25   47 1
    49   26   27 ar
    50   26   48 1
    51   27   28 ar
    52   27   49 1
    53   28   29 ar
    54   28   50 1
    55   29   30 1
    56   31   51 1
    57   31   52 1
@<TRIPOS>MOLECULE
CHEMBL495749__1
   53    57     0     0     0
SMALL
USER_CHARGES

@<TRIPOS>ATOM
      1 C1         -0.1452    1.3049    0.0137 C.3       1 <0>        -0.0465
      2 N1         -0.1520   -0.1641    0.0121 N.4       1 <0>        -0.3783
      3 C2         -1.5380   -0.6455   -0.0273 C.3       1 <0>        -0.0136
      4 C3         -1.5491   -2.1734   -0.1109 C.3       1 <0>        -0.1423
      5 C4         -0.8410   -2.7515    1.1177 C.3       1 <0>        -0.1687
      6 C5          0.5798   -2.1846    1.1897 C.3       1 <0>         0.0687
      7 C6          0.5120   -0.6563    1.2251 C.3       1 <0>        -0.0098
      8 O1          1.2244   -2.6612    2.3726 O.3       1 <0>        -0.2979
      9 C7          1.8274   -3.8746    2.2993 C.ar      1 <0>         0.1901
     10 C8          1.7101   -4.6436    1.1547 C.ar      1 <0>        -0.2450
     11 C9          2.3248   -5.8824    1.0792 C.ar      1 <0>        -0.0117
     12 C10         3.0620   -6.3705    2.1388 C.ar      1 <0>        -0.1890
     13 C11         3.1961   -5.6185    3.2996 C.ar      1 <0>         0.2552
     14 C12         2.5791   -4.3567    3.3809 C.ar      1 <0>        -0.1675
     15 C13         2.7299   -3.5676    4.6073 C.2       1 <0>         0.3658
     16 C14         3.4921   -4.1063    5.6481 C.2       1 <0>        -0.2781
     17 C15         4.0879   -5.3794    5.4913 C.2       1 <0>         0.5743
     18 O2          4.7508   -5.8417    6.4036 O.2       1 <0>        -0.5456
     19 N2          3.9311   -6.0969    4.3666 N.am      1 <0>        -0.6330
     20 H1          4.3549   -6.9666    4.2972 H         1 <0>         0.4246
     21 C16         3.6737   -3.3529    6.8995 C.2       1 <0>         0.3803
     22 N3          4.3509   -3.8055    8.0017 N.pl3     1 <0>        -0.5826
     23 H2          4.7889   -4.6659    8.0952 H         1 <0>         0.4349
     24 C17         4.2932   -2.8053    8.9561 C.ar      1 <0>         0.0462
     25 C18         4.7833   -2.6808   10.2477 C.ar      1 <0>        -0.1076
     26 C19         4.5508   -1.5239   10.9620 C.ar      1 <0>        -0.1042
     27 C20         3.8289   -0.4820   10.3977 C.ar      1 <0>        -0.1227
     28 C21         3.3347   -0.5872    9.1175 C.ar      1 <0>        -0.0764
     29 C22         3.5615   -1.7529    8.3790 C.ar      1 <0>         0.0572
     30 N4          3.2162   -2.1427    7.1268 N.2       1 <0>        -0.5276
     31 N5          2.1392   -2.3331    4.7300 N.pl3     1 <0>        -0.8056
     32 H3          0.8838    1.6635    0.0362 H         1 <0>         0.1270
     33 H4         -0.6381    1.6715   -0.8868 H         1 <0>         0.1294
     34 H5         -0.6765    1.6697    0.8928 H         1 <0>         0.1254
     35 H6         -2.0583   -0.3277    0.8762 H         1 <0>         0.1335
     36 H7         -2.0416   -0.2306   -0.9004 H         1 <0>         0.1379
     37 H8         -2.5791   -2.5289   -0.1382 H         1 <0>         0.1224
     38 H9         -1.0292   -2.4923   -1.0143 H         1 <0>         0.0920
     39 H10        -1.3896   -2.4755    2.0182 H         1 <0>         0.0978
     40 H11        -0.7963   -3.8375    1.0352 H         1 <0>         0.1051
     41 H12         1.1439   -2.5037    0.3132 H         1 <0>         0.1027
     42 H13         1.5219   -0.2493    1.2765 H         1 <0>         0.1433
     43 H14        -0.0520   -0.3383    2.1019 H         1 <0>         0.1431
     44 H15         1.1363   -4.2762    0.3167 H         1 <0>         0.1369
     45 H16         2.2257   -6.4734    0.1808 H         1 <0>         0.1442
     46 H17         3.5352   -7.3386    2.0658 H         1 <0>         0.1472
     47 H18         5.3455   -3.4881   10.6934 H         1 <0>         0.1241
     48 H19         4.9331   -1.4285   11.9676 H         1 <0>         0.1318
     49 H20         3.6530    0.4183   10.9677 H         1 <0>         0.1304
     50 H21         2.7733    0.2277    8.6849 H         1 <0>         0.1262
     51 H22         1.3515   -2.1182    4.2063 H         1 <0>         0.4012
     52 H23         2.5099   -1.6766    5.3404 H         1 <0>         0.4288
     53 H24         0.3421   -0.5008   -0.8007 H         1 <0>         0.4261
@<TRIPOS>BOND
     1    1    2 1
     2    1   32 1
     3    1   33 1
     4    1   34 1
     5    2    7 1
     6    2    3 1
     7    2   53 1
     8    3    4 1
     9    3   35 1
    10    3   36 1
    11    4    5 1
    12    4   37 1
    13    4   38 1
    14    5    6 1
    15    5   39 1
    16    5   40 1
    17    6    7 1
    18    6    8 1
    19    6   41 1
    20    7   42 1
    21    7   43 1
    22    8    9 1
    23    9   14 ar
    24    9   10 ar
    25   10   11 ar
    26   10   44 1
    27   11   12 ar
    28   11   45 1
    29   12   13 ar
    30   12   46 1
    31   13   19 1
    32   13   14 ar
    33   14   15 1
    34   15   16 2
    35   15   31 1
    36   16   17 1
    37   16   21 1
    38   17   18 2
    39   17   19 am
    40   19   20 1
    41   21   30 2
    42   21   22 1
    43   22   23 1
    44   22   24 1
    45   24   29 ar
    46   24   25 ar
    47   25   26 ar
    48   25   47 1
    49   26   27 ar
    50   26   48 1
    51   27   28 ar
    52   27   49 1
    53   28   29 ar
    54   28   50 1
    55   29   30 1
    56   31   51 1
    57   31   52 1
@<TRIPOS>MOLECULE
CHEMBL526507
   68    73     0     0     0
SMALL
USER_CHARGES

@<TRIPOS>ATOM
      1 C1         -0.0690    1.5180    0.0699 C.3       1 <0>        -0.0469
      2 N1         -0.0403    0.0493    0.0582 N.4       1 <0>        -0.3837
      3 C2         -1.4155   -0.4653    0.0520 C.3       1 <0>        -0.0238
      4 C3         -1.3879   -1.9919   -0.0758 C.3       1 <0>         0.1007
      5 N2         -0.5413   -2.5346    0.9980 N.pl3     1 <0>        -0.6430
      6 C4          0.8002   -1.9592    1.1809 C.3       1 <0>         0.0996
      7 C5          0.6693   -0.4340    1.2494 C.3       1 <0>        -0.0227
      8 C6         -0.9990   -3.5679    1.8219 C.ar      1 <0>         0.2057
      9 C7         -2.3136   -4.0156    1.7076 C.ar      1 <0>        -0.1821
     10 C8         -2.7761   -5.0238    2.5041 C.ar      1 <0>        -0.0230
     11 C9         -1.9278   -5.6165    3.4450 C.ar      1 <0>         0.0318
     12 C10        -0.6010   -5.1670    3.5627 C.ar      1 <0>         0.0882
     13 C11        -0.1416   -4.1458    2.7443 C.ar      1 <0>        -0.1806
     14 N3         -0.0202   -5.9308    4.5590 N.pl3     1 <0>        -0.5836
     15 C12        -0.9779   -6.8020    5.0118 C.2       1 <0>         0.3966
     16 N4         -2.0969   -6.6116    4.3524 N.2       1 <0>        -0.5273
     17 C13        -0.7806   -7.8000    6.0766 C.2       1 <0>        -0.3050
     18 C14        -1.7878   -8.7206    6.3721 C.2       1 <0>         0.3775
     19 C15        -1.5411   -9.6955    7.4435 C.ar      1 <0>        -0.1596
     20 C16        -2.5056  -10.6417    7.7873 C.ar      1 <0>         0.0163
     21 C17        -2.2379  -11.5503    8.8070 C.ar      1 <0>        -0.1665
     22 C18        -1.0084  -11.5092    9.4782 C.ar      1 <0>        -0.0183
     23 C19        -0.0636  -10.5839    9.1437 C.ar      1 <0>        -0.1675
     24 C20        -0.3096   -9.6648    8.1257 C.ar      1 <0>         0.2426
     25 N5          0.6422   -8.7291    7.7838 N.am      1 <0>        -0.6333
     26 H1          1.4866   -8.7180    8.2611 H         1 <0>         0.4220
     27 C21         0.4333   -7.8358    6.8032 C.2       1 <0>         0.5818
     28 O1          1.3095   -7.0323    6.5354 O.2       1 <0>        -0.5601
     29 C22        -3.2502  -12.5579    9.1823 C.2       1 <0>         0.5620
     30 O2         -4.3171  -12.5936    8.6005 O.2       1 <0>        -0.5331
     31 N6         -2.9913  -13.4378   10.1698 N.am      1 <0>        -0.7203
     32 C23        -3.9956  -14.4374   10.5421 C.3       1 <0>         0.1620
     33 C24        -3.4625  -15.2916   11.6633 C.ar      1 <0>        -0.1161
     34 C25        -2.7515  -16.4422   11.3776 C.ar      1 <0>        -0.1003
     35 C26        -2.2625  -17.2258   12.4061 C.ar      1 <0>        -0.1208
     36 C27        -2.4841  -16.8586   13.7202 C.ar      1 <0>        -0.1085
     37 C28        -3.1944  -15.7075   14.0059 C.ar      1 <0>        -0.1208
     38 C29        -3.6797  -14.9217   12.9774 C.ar      1 <0>        -0.1003
     39 N7         -2.9753   -8.7149    5.6814 N.pl3     1 <0>        -0.7972
     40 H2          0.9514    1.9014    0.0664 H         1 <0>         0.1245
     41 H3         -0.5955    1.8782   -0.8140 H         1 <0>         0.1250
     42 H4         -0.5841    1.8642    0.9659 H         1 <0>         0.1214
     43 H5         -1.9117   -0.1873    0.9818 H         1 <0>         0.1327
     44 H6         -1.9590   -0.0397   -0.7915 H         1 <0>         0.1407
     45 H7         -2.3996   -2.3859    0.0209 H         1 <0>         0.1285
     46 H8         -0.9741   -2.2710   -1.0448 H         1 <0>         0.0875
     47 H9          1.2351   -2.3315    2.1084 H         1 <0>         0.1252
     48 H10         1.4349   -2.2349    0.3387 H         1 <0>         0.0872
     49 H11         1.6619    0.0146    1.2881 H         1 <0>         0.1400
     50 H12         0.1100   -0.1570    2.1430 H         1 <0>         0.1324
     51 H13        -2.9727   -3.5609    0.9828 H         1 <0>         0.1290
     52 H14        -3.7968   -5.3632    2.4077 H         1 <0>         0.1351
     53 H15         0.8781   -3.8000    2.8284 H         1 <0>         0.1224
     54 H16        -3.4518  -10.6692    7.2673 H         1 <0>         0.1489
     55 H17        -0.8070  -12.2170   10.2687 H         1 <0>         0.1404
     56 H18         0.8794  -10.5639    9.6700 H         1 <0>         0.1489
     57 H19        -2.1401  -13.4093   10.6340 H         1 <0>         0.4015
     58 H20        -4.9052  -13.9340   10.8697 H         1 <0>         0.0807
     59 H21        -4.2188  -15.0666    9.6804 H         1 <0>         0.0808
     60 H22        -2.5783  -16.7291   10.3509 H         1 <0>         0.1245
     61 H23        -1.7076  -18.1250   12.1829 H         1 <0>         0.1258
     62 H24        -2.1027  -17.4711   14.5238 H         1 <0>         0.1252
     63 H25        -3.3678  -15.4208   15.0326 H         1 <0>         0.1258
     64 H26        -4.2314  -14.0204   13.2005 H         1 <0>         0.1245
     65 H27        -3.0930   -8.1205    4.9239 H         1 <0>         0.4324
     66 H28        -3.6961   -9.3053    5.9511 H         1 <0>         0.4062
     67 H29         0.4394   -0.2698   -0.7702 H         1 <0>         0.4245
     68 H30         0.8935   -5.8631    4.8775 H         1 <0>         0.4357
@<TRIPOS>BOND
     1    1    2 1
     2    1   40 1
     3    1   41 1
     4    1   42 1
     5    2    7 1
     6    2    3 1
     7    2   67 1
     8    3    4 1
     9    3   43 1
    10    3   44 1
    11    4    5 1
    12    4   45 1
    13    4   46 1
    14    5    6 1
    15    5    8 1
    16    6    7 1
    17    6   47 1
    18    6   48 1
    19    7   49 1
    20    7   50 1
    21    8   13 ar
    22    8    9 ar
    23    9   10 ar
    24    9   51 1
    25   10   11 ar
    26   10   52 1
    27   11   16 1
    28   11   12 ar
    29   12   13 ar
    30   12   14 1
    31   13   53 1
    32   14   15 1
    33   14   68 1
    34   15   16 2
    35   15   17 1
    36   17   27 1
    37   17   18 2
    38   18   19 1
    39   18   39 1
    40   19   24 ar
    41   19   20 ar
    42   20   21 ar
    43   20   54 1
    44   21   22 ar
    45   21   29 1
    46   22   23 ar
    47   22   55 1
    48   23   24 ar
    49   23   56 1
    50   24   25 1
    51   25   26 1
    52   25   27 am
    53   27   28 2
    54   29   30 2
    55   29   31 am
    56   31   32 1
    57   31   57 1
    58   32   33 1
    59   32   58 1
    60   32   59 1
    61   33   38 ar
    62   33   34 ar
    63   34   35 ar
    64   34   60 1
    65   35   36 ar
    66   35   61 1
    67   36   37 ar
    68   36   62 1
    69   37   38 ar
    70   37   63 1
    71   38   64 1
    72   39   65 1
    73   39   66 1
@<TRIPOS>MOLECULE
CHEMBL526507__1
   67    72     0     0     0
SMALL
USER_CHARGES

@<TRIPOS>ATOM
      1 C1          1.6357   -1.1558   -2.5765 C.3       1 <0>         0.0244
      2 N1          0.8624   -1.3670   -1.3455 N.3       1 <0>        -0.5426
      3 C2          1.6697   -2.0530   -0.3278 C.3       1 <0>         0.0384
      4 C3          0.8942   -2.0924    0.9933 C.3       1 <0>         0.1266
      5 N2         -0.4269   -2.6880    0.7420 N.pl3     1 <0>        -0.6319
      6 C4         -1.2393   -2.1414   -0.3554 C.3       1 <0>         0.1281
      7 C5         -0.3799   -2.1001   -1.6234 C.3       1 <0>         0.0383
      8 C6         -0.8985   -3.7463    1.5266 C.ar      1 <0>         0.2175
      9 C7         -2.1984   -4.2156    1.3481 C.ar      1 <0>        -0.1722
     10 C8         -2.6749   -5.2579    2.1143 C.ar      1 <0>        -0.0596
     11 C9         -1.8582   -5.8454    3.0695 C.ar      1 <0>        -0.0043
     12 C10        -0.5456   -5.3789    3.2567 C.ar      1 <0>         0.1137
     13 C11        -0.0705   -4.3244    2.4704 C.ar      1 <0>        -0.1718
     14 N3          0.0109   -6.1278    4.2407 N.2       1 <0>        -0.5426
     15 C12        -0.8596   -7.0140    4.6677 C.2       1 <0>         0.3932
     16 N4         -2.0334   -6.8804    3.9740 N.pl3     1 <0>        -0.5812
     17 H1         -2.8368   -7.4107    4.0938 H         1 <0>         0.4323
     18 C13        -0.6113   -8.0019    5.7308 C.2       1 <0>        -0.2965
     19 C14         0.5812   -7.9685    6.4567 C.2       1 <0>         0.3700
     20 C15         0.7800   -8.9768    7.5069 C.ar      1 <0>        -0.1563
     21 C16         1.9480   -8.9979    8.2680 C.ar      1 <0>         0.0167
     22 C17         2.1025   -9.9670    9.2549 C.ar      1 <0>        -0.1709
     23 C18         1.0899  -10.9100    9.4767 C.ar      1 <0>        -0.0213
     24 C19        -0.0536  -10.8911    8.7332 C.ar      1 <0>        -0.1689
     25 C20        -0.2300   -9.9300    7.7397 C.ar      1 <0>         0.2435
     26 N5         -1.3838   -9.9065    6.9870 N.am      1 <0>        -0.6341
     27 H2         -2.0722  -10.5684    7.1569 H         1 <0>         0.4205
     28 C21        -1.5820   -8.9881    6.0276 C.2       1 <0>         0.5788
     29 O1         -2.6223   -9.0071    5.3933 O.2       1 <0>        -0.5539
     30 C22         3.3344  -10.0019   10.0685 C.2       1 <0>         0.5634
     31 O2          4.2133   -9.1842    9.8761 O.2       1 <0>        -0.5337
     32 N6          3.4845  -10.9402   11.0243 N.am      1 <0>        -0.7219
     33 C23         4.7066  -10.9748   11.8314 C.3       1 <0>         0.1618
     34 C24         4.6239  -12.1095   12.8197 C.ar      1 <0>        -0.1141
     35 C25         4.0738  -11.8982   14.0701 C.ar      1 <0>        -0.1002
     36 C26         3.9980  -12.9391   14.9767 C.ar      1 <0>        -0.1213
     37 C27         4.4719  -14.1912   14.6326 C.ar      1 <0>        -0.1098
     38 C28         5.0212  -14.4027   13.3818 C.ar      1 <0>        -0.1213
     39 C29         5.0931  -13.3629   12.4737 C.ar      1 <0>        -0.1002
     40 N7          1.5406   -7.0209    6.1962 N.pl3     1 <0>        -0.7980
     41 H3          1.0407   -0.5794   -3.2849 H         1 <0>         0.0701
     42 H4          2.5502   -0.6109   -2.3421 H         1 <0>         0.0699
     43 H5          1.8899   -2.1204   -3.0158 H         1 <0>         0.0254
     44 H6          1.8807   -3.0707   -0.6562 H         1 <0>         0.0385
     45 H7          2.6067   -1.5153   -0.1837 H         1 <0>         0.0849
     46 H8          1.4372   -2.6984    1.7186 H         1 <0>         0.0879
     47 H9          0.7722   -1.0793    1.3766 H         1 <0>         0.0692
     48 H10        -2.1070   -2.7799   -0.5218 H         1 <0>         0.0860
     49 H11        -1.5664   -1.1331   -0.1018 H         1 <0>         0.0692
     50 H12        -0.9292   -1.5966   -2.4189 H         1 <0>         0.0850
     51 H13        -0.1404   -3.1172   -1.9338 H         1 <0>         0.0384
     52 H14        -2.8364   -3.7598    0.6054 H         1 <0>         0.1300
     53 H15        -3.6835   -5.6167    1.9713 H         1 <0>         0.1231
     54 H16         0.9377   -3.9607    2.6030 H         1 <0>         0.1268
     55 H17         2.7257   -8.2692    8.0931 H         1 <0>         0.1483
     56 H18         1.2162  -11.6597   10.2438 H         1 <0>         0.1382
     57 H19        -0.8255  -11.6242    8.9153 H         1 <0>         0.1473
     58 H20         2.7832  -11.5926   11.1778 H         1 <0>         0.4013
     59 H21         5.5681  -11.1222   11.1801 H         1 <0>         0.0801
     60 H22         4.8141  -10.0324   12.3684 H         1 <0>         0.0801
     61 H23         3.7036  -10.9200   14.3390 H         1 <0>         0.1247
     62 H24         3.5689  -12.7739   15.9539 H         1 <0>         0.1252
     63 H25         4.4134  -15.0042   15.3411 H         1 <0>         0.1243
     64 H26         5.3918  -15.3809   13.1131 H         1 <0>         0.1252
     65 H27         5.5189  -13.5290   11.4952 H         1 <0>         0.1247
     66 H28         1.3625   -6.3134    5.5570 H         1 <0>         0.4342
     67 H29         2.3963   -7.0592    6.6513 H         1 <0>         0.4033
@<TRIPOS>BOND
     1    1    2 1
     2    1   41 1
     3    1   42 1
     4    1   43 1
     5    2    7 1
     6    2    3 1
     7    3    4 1
     8    3   44 1
     9    3   45 1
    10    4    5 1
    11    4   46 1
    12    4   47 1
    13    5    6 1
    14    5    8 1
    15    6    7 1
    16    6   48 1
    17    6   49 1
    18    7   50 1
    19    7   51 1
    20    8   13 ar
    21    8    9 ar
    22    9   10 ar
    23    9   52 1
    24   10   11 ar
    25   10   53 1
    26   11   16 1
    27   11   12 ar
    28   12   13 ar
    29   12   14 1
    30   13   54 1
    31   14   15 2
    32   15   16 1
    33   15   18 1
    34   16   17 1
    35   18   28 1
    36   18   19 2
    37   19   20 1
    38   19   40 1
    39   20   25 ar
    40   20   21 ar
    41   21   22 ar
    42   21   55 1
    43   22   23 ar
    44   22   30 1
    45   23   24 ar
    46   23   56 1
    47   24   25 ar
    48   24   57 1
    49   25   26 1
    50   26   27 1
    51   26   28 am
    52   28   29 2
    53   30   31 2
    54   30   32 am
    55   32   33 1
    56   32   58 1
    57   33   34 1
    58   33   59 1
    59   33   60 1
    60   34   39 ar
    61   34   35 ar
    62   35   36 ar
    63   35   61 1
    64   36   37 ar
    65   36   62 1
    66   37   38 ar
    67   37   63 1
    68   38   39 ar
    69   38   64 1
    70   39   65 1
    71   40   66 1
    72   40   67 1
@<TRIPOS>MOLECULE
CHEMBL526507__2
   68    73     0     0     0
SMALL
USER_CHARGES

@<TRIPOS>ATOM
      1 C1          0.0133    1.3905   -0.1079 C.3       1 <0>        -0.0468
      2 N1          0.0383   -0.0782   -0.0929 N.4       1 <0>        -0.3836
      3 C2         -1.3382   -0.5895   -0.1008 C.3       1 <0>        -0.0236
      4 C3         -1.3136   -2.1183   -0.2009 C.3       1 <0>         0.1011
      5 N2         -0.4770   -2.6435    0.8893 N.pl3     1 <0>        -0.6444
      6 C4          0.8644   -2.0682    1.0725 C.3       1 <0>         0.1003
      7 C5          0.7370   -0.5418    1.1125 C.3       1 <0>        -0.0229
      8 C6         -0.9442   -3.6612    1.7283 C.ar      1 <0>         0.1927
      9 C7         -2.2592   -4.1070    1.6110 C.ar      1 <0>        -0.1718
     10 C8         -2.7316   -5.1092    2.4314 C.ar      1 <0>        -0.0533
     11 C9         -1.8957   -5.6795    3.3803 C.ar      1 <0>         0.0098
     12 C10        -0.5677   -5.2363    3.5060 C.ar      1 <0>         0.1118
     13 C11        -0.0971   -4.2227    2.6652 C.ar      1 <0>        -0.1520
     14 N3          0.0058   -5.9609    4.4985 N.2       1 <0>        -0.5448
     15 C12        -0.8685   -6.8107    4.9872 C.2       1 <0>         0.4119
     16 N4         -2.0621   -6.6761    4.3284 N.pl3     1 <0>        -0.5798
     17 H1         -2.8721   -7.1833    4.4947 H         1 <0>         0.4371
     18 C13        -0.6054   -7.7641    6.0779 C.2       1 <0>        -0.3066
     19 C14         0.6112   -7.7305    6.7626 C.2       1 <0>         0.3799
     20 C15         0.8241   -8.7036    7.8428 C.ar      1 <0>        -0.1613
     21 C16         2.0162   -8.7225    8.5655 C.ar      1 <0>         0.0165
     22 C17         2.1835   -9.6579    9.5824 C.ar      1 <0>        -0.1673
     23 C18         1.1594  -10.5695    9.8725 C.ar      1 <0>        -0.0176
     24 C19        -0.0077  -10.5526    9.1666 C.ar      1 <0>        -0.1673
     25 C20        -0.1973   -9.6250    8.1442 C.ar      1 <0>         0.2444
     26 N5         -1.3749   -9.6037    7.4293 N.am      1 <0>        -0.6330
     27 H2         -2.0709  -10.2434    7.6464 H         1 <0>         0.4228
     28 C21        -1.5860   -8.7170    6.4432 C.2       1 <0>         0.5808
     29 O1         -2.6472   -8.7363    5.8444 O.2       1 <0>        -0.5555
     30 C22         3.4410   -9.6901   10.3560 C.2       1 <0>         0.5625
     31 O2          4.3299   -8.8997   10.1044 O.2       1 <0>        -0.5344
     32 N6          3.6034  -10.5957   11.3408 N.am      1 <0>        -0.7201
     33 C23         4.8509  -10.6277   12.1082 C.3       1 <0>         0.1622
     34 C24         4.7778  -11.7231   13.1405 C.ar      1 <0>        -0.1165
     35 C25         4.2745  -11.4539   14.3995 C.ar      1 <0>        -0.1003
     36 C26         4.2074  -12.4588   15.3464 C.ar      1 <0>        -0.1208
     37 C27         4.6432  -13.7329   15.0342 C.ar      1 <0>        -0.1083
     38 C28         5.1457  -14.0024   13.7749 C.ar      1 <0>        -0.1207
     39 C29         5.2088  -12.9985   12.8266 C.ar      1 <0>        -0.1002
     40 N7          1.5810   -6.8146    6.4354 N.pl3     1 <0>        -0.7979
     41 H3          1.0347    1.7712   -0.1101 H         1 <0>         0.1245
     42 H4         -0.5052    1.7360   -1.0022 H         1 <0>         0.1245
     43 H5         -0.5081    1.7541    0.7776 H         1 <0>         0.1212
     44 H6         -1.8411   -0.2936    0.8198 H         1 <0>         0.1322
     45 H7         -1.8739   -0.1778   -0.9562 H         1 <0>         0.1398
     46 H8         -2.3270   -2.5079   -0.1052 H         1 <0>         0.1268
     47 H9         -0.8928   -2.4157   -1.1614 H         1 <0>         0.0867
     48 H10         1.2910   -2.4248    2.0101 H         1 <0>         0.1270
     49 H11         1.5052   -2.3607    0.2406 H         1 <0>         0.0865
     50 H12         1.7305   -0.0951    1.1512 H         1 <0>         0.1399
     51 H13         0.1713   -0.2473    1.9964 H         1 <0>         0.1322
     52 H14        -2.9123   -3.6645    0.8733 H         1 <0>         0.1295
     53 H15        -3.7520   -5.4500    2.3356 H         1 <0>         0.1294
     54 H16         0.9226   -3.8773    2.7504 H         1 <0>         0.1275
     55 H17         2.8027   -8.0182    8.3380 H         1 <0>         0.1484
     56 H18         1.2957  -11.2930   10.6626 H         1 <0>         0.1407
     57 H19        -0.7883  -11.2612    9.4013 H         1 <0>         0.1495
     58 H20         2.8942  -11.2263   11.5415 H         1 <0>         0.4017
     59 H21         5.6868  -10.8180   11.4350 H         1 <0>         0.0806
     60 H22         4.9962   -9.6687   12.6057 H         1 <0>         0.0806
     61 H23         3.9340  -10.4584   14.6434 H         1 <0>         0.1244
     62 H24         3.8149  -12.2483   16.3303 H         1 <0>         0.1258
     63 H25         4.5915  -14.5178   15.7742 H         1 <0>         0.1253
     64 H26         5.4865  -14.9977   13.5311 H         1 <0>         0.1259
     65 H27         5.5979  -13.2099   11.8415 H         1 <0>         0.1245
     66 H28         1.3962   -6.1270    5.7767 H         1 <0>         0.4318
     67 H29         2.4506   -6.8553    6.8631 H         1 <0>         0.4057
     68 H30         0.5237   -0.4135   -0.9114 H         1 <0>         0.4244
@<TRIPOS>BOND
     1    1    2 1
     2    1   41 1
     3    1   42 1
     4    1   43 1
     5    2    7 1
     6    2    3 1
     7    2   68 1
     8    3    4 1
     9    3   44 1
    10    3   45 1
    11    4    5 1
    12    4   46 1
    13    4   47 1
    14    5    6 1
    15    5    8 1
    16    6    7 1
    17    6   48 1
    18    6   49 1
    19    7   50 1
    20    7   51 1
    21    8   13 ar
    22    8    9 ar
    23    9   10 ar
    24    9   52 1
    25   10   11 ar
    26   10   53 1
    27   11   16 1
    28   11   12 ar
    29   12   13 ar
    30   12   14 1
    31   13   54 1
    32   14   15 2
    33   15   16 1
    34   15   18 1
    35   16   17 1
    36   18   28 1
    37   18   19 2
    38   19   20 1
    39   19   40 1
    40   20   25 ar
    41   20   21 ar
    42   21   22 ar
    43   21   55 1
    44   22   23 ar
    45   22   30 1
    46   23   24 ar
    47   23   56 1
    48   24   25 ar
    49   24   57 1
    50   25   26 1
    51   26   27 1
    52   26   28 am
    53   28   29 2
    54   30   31 2
    55   30   32 am
    56   32   33 1
    57   32   58 1
    58   33   34 1
    59   33   59 1
    60   33   60 1
    61   34   39 ar
    62   34   35 ar
    63   35   36 ar
    64   35   61 1
    65   36   37 ar
    66   36   62 1
    67   37   38 ar
    68   37   63 1
    69   38   39 ar
    70   38   64 1
    71   39   65 1
    72   40   66 1
    73   40   67 1
@<TRIPOS>MOLECULE
CHEMBL205405
   50    54     0     0     0
SMALL
USER_CHARGES

@<TRIPOS>ATOM
      1 C1         -0.0525    1.5102    0.0603 C.3       1 <0>        -0.0469
      2 N1         -0.0298    0.0414    0.0496 N.4       1 <0>        -0.3837
      3 C2         -1.4071   -0.4676    0.0485 C.3       1 <0>        -0.0238
      4 C3         -1.3861   -1.9945   -0.0783 C.3       1 <0>         0.1007
      5 N2         -0.5381   -2.5398    0.9930 N.pl3     1 <0>        -0.6429
      6 C4          0.8063   -1.9697    1.1709 C.3       1 <0>         0.0996
      7 C5          0.6819   -0.4440    1.2387 C.3       1 <0>        -0.0227
      8 C6         -0.9968   -3.5711    1.8185 C.ar      1 <0>         0.2060
      9 C7         -2.3134   -4.0143    1.7084 C.ar      1 <0>        -0.1821
     10 C8         -2.7771   -5.0202    2.5068 C.ar      1 <0>        -0.0225
     11 C9         -1.9281   -5.6154    3.4457 C.ar      1 <0>         0.0316
     12 C10        -0.5992   -5.1705    3.5592 C.ar      1 <0>         0.0887
     13 C11        -0.1385   -4.1517    2.7384 C.ar      1 <0>        -0.1807
     14 N3         -0.0184   -5.9352    4.5543 N.pl3     1 <0>        -0.5828
     15 C12        -0.9779   -6.8026    5.0107 C.2       1 <0>         0.3968
     16 N4         -2.0980   -6.6088    4.3544 N.2       1 <0>        -0.5263
     17 C13        -0.7811   -7.8007    6.0758 C.2       1 <0>        -0.3009
     18 C14        -1.7899   -8.7157    6.3731 C.2       1 <0>         0.3846
     19 C15        -1.5472   -9.6945    7.4450 C.ar      1 <0>         0.0539
     20 C16        -0.3155   -9.6655    8.1200 C.ar      1 <0>         0.1688
     21 C17        -0.0814  -10.5915    9.1367 C.ar      1 <0>        -0.1189
     22 C18        -1.0782  -11.5012    9.4358 C.ar      1 <0>        -0.1004
     23 C19        -2.2713  -11.4703    8.7258 C.ar      1 <0>         0.0848
     24 N5         -2.4740  -10.5903    7.7714 N.ar      1 <0>        -0.4288
     25 N6          0.6429   -8.7344    7.7792 N.am      1 <0>        -0.6322
     26 C20         0.4365   -7.8391    6.7988 C.2       1 <0>         0.5822
     27 O1          1.3148   -7.0387    6.5288 O.2       1 <0>        -0.5596
     28 N7         -2.9793   -8.7039    5.6840 N.pl3     1 <0>        -0.7828
     29 H1          0.9693    1.8895    0.0531 H         1 <0>         0.1245
     30 H2         -0.5806    1.8719   -0.8220 H         1 <0>         0.1249
     31 H3         -0.5632    1.8592    0.9579 H         1 <0>         0.1214
     32 H4         -1.8990   -0.1870    0.9798 H         1 <0>         0.1327
     33 H5         -1.9518   -0.0404   -0.7935 H         1 <0>         0.1407
     34 H6         -2.3991   -2.3843    0.0222 H         1 <0>         0.1285
     35 H7         -0.9768   -2.2758   -1.0485 H         1 <0>         0.0875
     36 H8          1.2429   -2.3431    2.0972 H         1 <0>         0.1253
     37 H9          1.4371   -2.2485    0.3268 H         1 <0>         0.0872
     38 H10         1.6764    0.0006    1.2738 H         1 <0>         0.1401
     39 H11         0.1267   -0.1640    2.1340 H         1 <0>         0.1324
     40 H12        -2.9730   -3.5577    0.9853 H         1 <0>         0.1291
     41 H13        -3.7993   -5.3560    2.4137 H         1 <0>         0.1353
     42 H14         0.8827   -3.8096    2.8190 H         1 <0>         0.1226
     43 H15         0.8543  -10.5977    9.6759 H         1 <0>         0.1542
     44 H16        -0.9298  -12.2321   10.2170 H         1 <0>         0.1544
     45 H17        -3.0474  -12.1830    8.9628 H         1 <0>         0.1736
     46 H18        -3.0954   -8.1084    4.9271 H         1 <0>         0.4304
     47 H19        -3.7025   -9.2910    5.9546 H         1 <0>         0.4140
     48 H20         1.4879   -8.7285    8.2556 H         1 <0>         0.4211
     49 H21         0.4457   -0.2803   -0.7801 H         1 <0>         0.4245
     50 H22         0.8964   -5.8706    4.8702 H         1 <0>         0.4359
@<TRIPOS>BOND
     1    1    2 1
     2    1   29 1
     3    1   30 1
     4    1   31 1
     5    2    7 1
     6    2    3 1
     7    2   49 1
     8    3    4 1
     9    3   32 1
    10    3   33 1
    11    4    5 1
    12    4   34 1
    13    4   35 1
    14    5    6 1
    15    5    8 1
    16    6    7 1
    17    6   36 1
    18    6   37 1
    19    7   38 1
    20    7   39 1
    21    8   13 ar
    22    8    9 ar
    23    9   10 ar
    24    9   40 1
    25   10   11 ar
    26   10   41 1
    27   11   16 1
    28   11   12 ar
    29   12   13 ar
    30   12   14 1
    31   13   42 1
    32   14   15 1
    33   14   50 1
    34   15   16 2
    35   15   17 1
    36   17   26 1
    37   17   18 2
    38   18   19 1
    39   18   28 1
    40   19   24 ar
    41   19   20 ar
    42   20   21 ar
    43   20   25 1
    44   21   22 ar
    45   21   43 1
    46   22   23 ar
    47   22   44 1
    48   23   24 ar
    49   23   45 1
    50   25   26 am
    51   25   48 1
    52   26   27 2
    53   28   46 1
    54   28   47 1
@<TRIPOS>MOLECULE
CHEMBL205405__1
   49    53     0     0     0
SMALL
USER_CHARGES

@<TRIPOS>ATOM
      1 C1          1.6322   -1.1724   -2.5905 C.3       1 <0>         0.0243
      2 N1          0.8627   -1.3793   -1.3564 N.3       1 <0>        -0.5425
      3 C2          1.6709   -2.0680   -0.3413 C.3       1 <0>         0.0383
      4 C3          0.9003   -2.1030    0.9828 C.3       1 <0>         0.1265
      5 N2         -0.4243   -2.6932    0.7370 N.pl3     1 <0>        -0.6320
      6 C4         -1.2385   -2.1440   -0.3578 C.3       1 <0>         0.1281
      7 C5         -0.3837   -2.1074   -1.6291 C.3       1 <0>         0.0383
      8 C6         -0.8974   -3.7489    1.5242 C.ar      1 <0>         0.2173
      9 C7         -2.2000   -4.2127    1.3509 C.ar      1 <0>        -0.1719
     10 C8         -2.6783   -5.2521    2.1200 C.ar      1 <0>        -0.0595
     11 C9         -1.8605   -5.8423    3.0726 C.ar      1 <0>        -0.0037
     12 C10        -0.5450   -5.3815    3.2542 C.ar      1 <0>         0.1135
     13 C11        -0.0683   -4.3297    2.4653 C.ar      1 <0>        -0.1714
     14 N3          0.0117   -6.1317    4.2370 N.2       1 <0>        -0.5418
     15 C12        -0.8612   -7.0131    4.6683 C.2       1 <0>         0.3936
     16 N4         -2.0369   -6.8751    3.9790 N.pl3     1 <0>        -0.5804
     17 H1         -2.8421   -7.4018    4.1023 H         1 <0>         0.4325
     18 C13        -0.6133   -8.0010    5.7321 C.2       1 <0>        -0.2927
     19 C14         0.5805   -7.9706    6.4519 C.2       1 <0>         0.3772
     20 C15         0.7831   -8.9782    7.5053 C.ar      1 <0>         0.0579
     21 C16        -0.2294   -9.9232    7.7400 C.ar      1 <0>         0.1692
     22 C17        -0.0412  -10.8799    8.7376 C.ar      1 <0>        -0.1203
     23 C18         1.1402  -10.8546    9.4544 C.ar      1 <0>        -0.1046
     24 C19         2.0971   -9.8899    9.1668 C.ar      1 <0>         0.0808
     25 N5          1.9023   -8.9968    8.2229 N.ar      1 <0>        -0.4288
     26 N6         -1.3884   -9.9011    6.9930 N.am      1 <0>        -0.6332
     27 C20        -1.5889   -8.9830    6.0327 C.2       1 <0>         0.5793
     28 O1         -2.6317   -8.9989    5.4023 O.2       1 <0>        -0.5536
     29 N7          1.5419   -7.0257    6.1846 N.pl3     1 <0>        -0.7839
     30 H2          1.0371   -0.5940   -3.2972 H         1 <0>         0.0701
     31 H3          2.5499   -0.6312   -2.3600 H         1 <0>         0.0698
     32 H4          1.8807   -2.1384   -3.0300 H         1 <0>         0.0254
     33 H5          1.8763   -3.0868   -0.6696 H         1 <0>         0.0385
     34 H6          2.6108   -1.5341   -0.2011 H         1 <0>         0.0849
     35 H7          1.4434   -2.7108    1.7065 H         1 <0>         0.0879
     36 H8          0.7840   -1.0891    1.3657 H         1 <0>         0.0692
     37 H9         -2.1095   -2.7789   -0.5204 H         1 <0>         0.0860
     38 H10        -1.5604   -1.1341   -0.1037 H         1 <0>         0.0692
     39 H11        -0.9339   -1.6021   -2.4229 H         1 <0>         0.0850
     40 H12        -0.1497   -3.1257   -1.9395 H         1 <0>         0.0384
     41 H13        -2.8388   -3.7550    0.6100 H         1 <0>         0.1301
     42 H14        -3.6890   -5.6063    1.9812 H         1 <0>         0.1234
     43 H15         0.9419   -3.9701    2.5937 H         1 <0>         0.1270
     44 H16        -0.7991  -11.6209    8.9447 H         1 <0>         0.1526
     45 H17         1.3182  -11.5806   10.2339 H         1 <0>         0.1517
     46 H18         3.0188   -9.8738    9.7293 H         1 <0>         0.1711
     47 H19         1.3627   -6.3190    5.5447 H         1 <0>         0.4322
     48 H20         2.3996   -7.0654    6.6358 H         1 <0>         0.4111
     49 H21        -2.0771  -10.5613    7.1682 H         1 <0>         0.4196
@<TRIPOS>BOND
     1    1    2 1
     2    1   30 1
     3    1   31 1
     4    1   32 1
     5    2    7 1
     6    2    3 1
     7    3    4 1
     8    3   33 1
     9    3   34 1
    10    4    5 1
    11    4   35 1
    12    4   36 1
    13    5    6 1
    14    5    8 1
    15    6    7 1
    16    6   37 1
    17    6   38 1
    18    7   39 1
    19    7   40 1
    20    8   13 ar
    21    8    9 ar
    22    9   10 ar
    23    9   41 1
    24   10   11 ar
    25   10   42 1
    26   11   16 1
    27   11   12 ar
    28   12   13 ar
    29   12   14 1
    30   13   43 1
    31   14   15 2
    32   15   16 1
    33   15   18 1
    34   16   17 1
    35   18   27 1
    36   18   19 2
    37   19   20 1
    38   19   29 1
    39   20   25 ar
    40   20   21 ar
    41   21   22 ar
    42   21   26 1
    43   22   23 ar
    44   22   44 1
    45   23   24 ar
    46   23   45 1
    47   24   25 ar
    48   24   46 1
    49   26   27 am
    50   26   49 1
    51   27   28 2
    52   29   47 1
    53   29   48 1
@<TRIPOS>MOLECULE
CHEMBL205405__2
   50    54     0     0     0
SMALL
USER_CHARGES

@<TRIPOS>ATOM
      1 C1          0.0296    1.3821   -0.1180 C.3       1 <0>        -0.0468
      2 N1          0.0482   -0.0867   -0.1018 N.4       1 <0>        -0.3836
      3 C2         -1.3305   -0.5919   -0.1043 C.3       1 <0>        -0.0236
      4 C3         -1.3130   -2.1209   -0.2031 C.3       1 <0>         0.1011
      5 N2         -0.4747   -2.6489    0.8844 N.pl3     1 <0>        -0.6444
      6 C4          0.8699   -2.0794    1.0623 C.3       1 <0>         0.1003
      7 C5          0.7493   -0.5524    1.1014 C.3       1 <0>        -0.0229
      8 C6         -0.9433   -3.6638    1.7260 C.ar      1 <0>         0.1926
      9 C7         -2.2608   -4.1039    1.6138 C.ar      1 <0>        -0.1714
     10 C8         -2.7347   -5.1030    2.4370 C.ar      1 <0>        -0.0532
     11 C9         -1.8978   -5.6762    3.3834 C.ar      1 <0>         0.0102
     12 C10        -0.5673   -5.2391    3.5037 C.ar      1 <0>         0.1116
     13 C11        -0.0953   -4.2281    2.6603 C.ar      1 <0>        -0.1517
     14 N3          0.0064   -5.9649    4.4949 N.2       1 <0>        -0.5439
     15 C12        -0.8700   -6.8098    4.9879 C.2       1 <0>         0.4121
     16 N4         -2.0654   -6.6705    4.3334 N.pl3     1 <0>        -0.5789
     17 H1         -2.8770   -7.1739    4.5032 H         1 <0>         0.4374
     18 C13        -0.6073   -7.7631    6.0792 C.2       1 <0>        -0.3026
     19 C14         0.6103   -7.7327    6.7579 C.2       1 <0>         0.3872
     20 C15         0.8271   -8.7051    7.8411 C.ar      1 <0>         0.0517
     21 C16        -0.1965   -9.6182    8.1441 C.ar      1 <0>         0.1708
     22 C17         0.0050  -10.5416    9.1702 C.ar      1 <0>        -0.1188
     23 C18         1.2101  -10.5160    9.8464 C.ar      1 <0>        -0.0995
     24 C19         2.1768   -9.5840    9.4916 C.ar      1 <0>         0.0842
     25 N5          1.9692   -8.7222    8.5219 N.ar      1 <0>        -0.4292
     26 N6         -1.3792   -9.5979    7.4353 N.am      1 <0>        -0.6320
     27 C20        -1.5926   -8.7115    6.4483 C.2       1 <0>         0.5812
     28 O1         -2.6560   -8.7275    5.8534 O.2       1 <0>        -0.5551
     29 N7          1.5818   -6.8198    6.4240 N.pl3     1 <0>        -0.7837
     30 H2          1.0526    1.7583   -0.1242 H         1 <0>         0.1245
     31 H3         -0.4906    1.7291   -1.0107 H         1 <0>         0.1245
     32 H4         -0.4869    1.7487    0.7691 H         1 <0>         0.1212
     33 H5         -1.8288   -0.2930    0.8180 H         1 <0>         0.1323
     34 H6         -1.8675   -0.1787   -0.9580 H         1 <0>         0.1399
     35 H7         -2.3278   -2.5060   -0.1034 H         1 <0>         0.1269
     36 H8         -0.8970   -2.4210   -1.1649 H         1 <0>         0.0867
     37 H9          1.2983   -2.4371    1.9986 H         1 <0>         0.1271
     38 H10         1.5063   -2.3753    0.2283 H         1 <0>         0.0865
     39 H11         1.7449   -0.1099    1.1360 H         1 <0>         0.1399
     40 H12         0.1881   -0.2547    1.9871 H         1 <0>         0.1322
     41 H13        -2.9144   -3.6595    0.8779 H         1 <0>         0.1296
     42 H14        -3.7570   -5.4391    2.3453 H         1 <0>         0.1297
     43 H15         0.9262   -3.8871    2.7414 H         1 <0>         0.1277
     44 H16        -0.7609  -11.2575    9.4297 H         1 <0>         0.1548
     45 H17         1.3989  -11.2166   10.6464 H         1 <0>         0.1546
     46 H18         3.1170   -9.5676   10.0227 H         1 <0>         0.1735
     47 H19         1.3959   -6.1331    5.7646 H         1 <0>         0.4299
     48 H20         2.4533   -6.8621    6.8478 H         1 <0>         0.4135
     49 H21        -2.0753  -10.2358    7.6575 H         1 <0>         0.4219
     50 H22         0.5291   -0.4248   -0.9219 H         1 <0>         0.4244
@<TRIPOS>BOND
     1    1    2 1
     2    1   30 1
     3    1   31 1
     4    1   32 1
     5    2    7 1
     6    2    3 1
     7    2   50 1
     8    3    4 1
     9    3   33 1
    10    3   34 1
    11    4    5 1
    12    4   35 1
    13    4   36 1
    14    5    6 1
    15    5    8 1
    16    6    7 1
    17    6   37 1
    18    6   38 1
    19    7   39 1
    20    7   40 1
    21    8   13 ar
    22    8    9 ar
    23    9   10 ar
    24    9   41 1
    25   10   11 ar
    26   10   42 1
    27   11   16 1
    28   11   12 ar
    29   12   13 ar
    30   12   14 1
    31   13   43 1
    32   14   15 2
    33   15   16 1
    34   15   18 1
    35   16   17 1
    36   18   27 1
    37   18   19 2
    38   19   20 1
    39   19   29 1
    40   20   25 ar
    41   20   21 ar
    42   21   22 ar
    43   21   26 1
    44   22   23 ar
    45   22   44 1
    46   23   24 ar
    47   23   45 1
    48   24   25 ar
    49   24   46 1
    50   26   27 am
    51   26   49 1
    52   27   28 2
    53   29   47 1
    54   29   48 1
@<TRIPOS>MOLECULE
CHEMBL381283
   45    49     0     0     0
SMALL
USER_CHARGES

@<TRIPOS>ATOM
      1 C1         -0.1584    2.0470    0.1483 C.ar      1 <0>        -0.1721
      2 C2          1.1077    2.5911    0.0949 C.ar      1 <0>        -0.0588
      3 C3          2.2183    1.7606    0.0812 C.ar      1 <0>        -0.0026
      4 C4          2.0545    0.3649    0.1217 C.ar      1 <0>         0.1135
      5 C5          0.7666   -0.1762    0.1760 C.ar      1 <0>        -0.1693
      6 C6         -0.3305    0.6652    0.1886 C.ar      1 <0>         0.2163
      7 N1         -1.6205    0.1260    0.2425 N.pl3     1 <0>        -0.6339
      8 C7         -2.7997    0.9952    0.3816 C.3       1 <0>         0.0880
      9 C8         -3.8138    0.6112   -0.7019 C.3       1 <0>         0.0452
     10 O1         -4.0530   -0.7971   -0.6449 O.3       1 <0>        -0.3799
     11 C9         -2.8991   -1.5980   -0.9114 C.3       1 <0>         0.0457
     12 C10        -1.8384   -1.3267    0.1557 C.3       1 <0>         0.0878
     13 N2          3.2934   -0.1862    0.0964 N.2       1 <0>        -0.5421
     14 C11         4.1989    0.7640    0.0438 C.2       1 <0>         0.3936
     15 N3          3.5843    1.9884    0.0323 N.pl3     1 <0>        -0.5810
     16 H1          4.0231    2.8527   -0.0035 H         1 <0>         0.4327
     17 C12         5.6544    0.5461    0.0037 C.2       1 <0>        -0.2965
     18 C13         6.1676   -0.7489   -0.1061 C.2       1 <0>         0.3757
     19 C14         7.6256   -0.9102   -0.1417 C.ar      1 <0>        -0.2071
     20 C15         8.2234   -2.1660   -0.2502 C.ar      1 <0>         0.1830
     21 N4          9.5360   -2.2708   -0.2791 N.ar      1 <0>        -0.5033
     22 C16        10.3301   -1.2154   -0.2086 C.ar      1 <0>         0.1565
     23 C17         9.8239    0.0618   -0.1002 C.ar      1 <0>        -0.2179
     24 C18         8.4417    0.2357   -0.0644 C.ar      1 <0>         0.2536
     25 N5          7.8743    1.4836    0.0420 N.am      1 <0>        -0.6323
     26 C19         6.5404    1.6477    0.0705 C.2       1 <0>         0.5796
     27 O2          6.0824    2.7733    0.1610 O.2       1 <0>        -0.5520
     28 N6          5.3331   -1.8373   -0.1780 N.pl3     1 <0>        -0.7981
     29 H2         -1.0214    2.6961    0.1634 H         1 <0>         0.1305
     30 H3          1.2342    3.6632    0.0634 H         1 <0>         0.1243
     31 H4          0.6291   -1.2470    0.2070 H         1 <0>         0.1271
     32 H5         -3.2445    0.8556    1.3668 H         1 <0>         0.0704
     33 H6         -2.5047    2.0369    0.2557 H         1 <0>         0.0925
     34 H7         -4.7481    1.1463   -0.5321 H         1 <0>         0.1043
     35 H8         -3.4161    0.8736   -1.6823 H         1 <0>         0.0557
     36 H9         -3.1753   -2.6522   -0.8923 H         1 <0>         0.1047
     37 H10        -2.4980   -1.3436   -1.8925 H         1 <0>         0.0552
     38 H11        -0.9073   -1.8219   -0.1196 H         1 <0>         0.0931
     39 H12        -2.1849   -1.7041    1.1179 H         1 <0>         0.0695
     40 H13         7.6096   -3.0526   -0.3103 H         1 <0>         0.1668
     41 H14        11.4003   -1.3580   -0.2362 H         1 <0>         0.1702
     42 H15        10.4866    0.9128   -0.0437 H         1 <0>         0.1528
     43 H16         4.3732   -1.7095   -0.2353 H         1 <0>         0.4345
     44 H17         5.7035   -2.7337   -0.1716 H         1 <0>         0.4024
     45 H18         8.4493    2.2630    0.0945 H         1 <0>         0.4216
@<TRIPOS>BOND
     1    1    6 ar
     2    1    2 ar
     3    1   29 1
     4    2    3 ar
     5    2   30 1
     6    3   15 1
     7    3    4 ar
     8    4    5 ar
     9    4   13 1
    10    5    6 ar
    11    5   31 1
    12    6    7 1
    13    7   12 1
    14    7    8 1
    15    8    9 1
    16    8   32 1
    17    8   33 1
    18    9   10 1
    19    9   34 1
    20    9   35 1
    21   10   11 1
    22   11   12 1
    23   11   36 1
    24   11   37 1
    25   12   38 1
    26   12   39 1
    27   13   14 2
    28   14   15 1
    29   14   17 1
    30   15   16 1
    31   17   26 1
    32   17   18 2
    33   18   19 1
    34   18   28 1
    35   19   24 ar
    36   19   20 ar
    37   20   21 ar
    38   20   40 1
    39   21   22 ar
    40   22   23 ar
    41   22   41 1
    42   23   24 ar
    43   23   42 1
    44   24   25 1
    45   25   26 am
    46   25   45 1
    47   26   27 2
    48   28   43 1
    49   28   44 1
@<TRIPOS>MOLECULE
CHEMBL140808
   62    66     0     0     0
SMALL
USER_CHARGES

@<TRIPOS>ATOM
      1 C1          0.5255   -1.1117   -2.8549 C.3       1 <0>        -0.0470
      2 N1          0.2806   -1.2843   -1.4168 N.4       1 <0>        -0.3838
      3 C2          1.1118   -2.3831   -0.9090 C.3       1 <0>        -0.0235
      4 C3          0.9435   -2.4894    0.6103 C.3       1 <0>         0.0997
      5 N2         -0.4900   -2.6228    0.9125 N.pl3     1 <0>        -0.6455
      6 C4         -1.4188   -1.6552    0.3081 C.3       1 <0>         0.1002
      7 C5         -1.1390   -1.5882   -1.1969 C.3       1 <0>        -0.0230
      8 C6         -0.9569   -3.6414    1.7507 C.ar      1 <0>         0.1811
      9 C7         -0.0794   -4.6083    2.2238 C.ar      1 <0>        -0.1640
     10 C8         -0.5402   -5.6134    3.0508 C.ar      1 <0>        -0.0612
     11 C9         -1.8811   -5.6576    3.4092 C.ar      1 <0>         0.1301
     12 C10        -2.7587   -4.6911    2.9358 C.ar      1 <0>        -0.0967
     13 C11        -2.2967   -3.6822    2.1142 C.ar      1 <0>        -0.1627
     14 N3         -2.3486   -6.6775    4.2478 N.pl3     1 <0>        -0.6308
     15 C12        -1.5394   -7.1705    5.2528 C.ar      1 <0>         0.6024
     16 N4         -0.3705   -6.5805    5.4796 N.ar      1 <0>        -0.5756
     17 C13         0.4409   -7.0120    6.4282 C.ar      1 <0>         0.2564
     18 C14         0.0422   -8.1121    7.1965 C.ar      1 <0>        -0.2816
     19 C15         0.8772   -8.6530    8.2646 C.2       1 <0>         0.0044
     20 C16         0.4160   -9.7232    8.9635 C.2       1 <0>        -0.2234
     21 C17        -0.8385  -10.2854    8.6524 C.2       1 <0>         0.5410
     22 O1         -1.2329  -11.2451    9.2920 O.2       1 <0>        -0.5078
     23 N5         -1.6126   -9.7918    7.6696 N.am      1 <0>        -0.5022
     24 C18        -1.2066   -8.7134    6.9268 C.ar      1 <0>         0.4643
     25 N6         -1.9604   -8.2102    5.9575 N.ar      1 <0>        -0.5929
     26 C19        -2.9082  -10.4154    7.3888 C.3       1 <0>         0.1342
     27 C20        -3.7910  -10.3412    8.6362 C.3       1 <0>        -0.1346
     28 C21        -5.1440  -10.9924    8.3430 C.3       1 <0>        -0.1120
     29 C22        -4.9316  -12.4571    7.9549 C.3       1 <0>        -0.1235
     30 C23        -4.0488  -12.5313    6.7075 C.3       1 <0>        -0.1120
     31 C24        -2.6958  -11.8801    7.0008 C.3       1 <0>        -0.1343
     32 H1         -0.0850   -0.2910   -3.2315 H         1 <0>         0.1249
     33 H2          1.5791   -0.8860   -3.0196 H         1 <0>         0.1250
     34 H3          0.2642   -2.0300   -3.3808 H         1 <0>         0.1215
     35 H4          0.8023   -3.3184   -1.3753 H         1 <0>         0.1322
     36 H5          2.1575   -2.1873   -1.1460 H         1 <0>         0.1405
     37 H6          1.4783   -3.3653    0.9776 H         1 <0>         0.1269
     38 H7          1.3361   -1.5908    1.0861 H         1 <0>         0.0874
     39 H8         -2.4458   -1.9796    0.4756 H         1 <0>         0.1260
     40 H9         -1.2648   -0.6723    0.7534 H         1 <0>         0.0870
     41 H10        -1.7518   -0.8067   -1.6461 H         1 <0>         0.1404
     42 H11        -1.3804   -2.5476   -1.6545 H         1 <0>         0.1322
     43 H12         0.9633   -4.5743    1.9445 H         1 <0>         0.1260
     44 H13         0.1422   -6.3653    3.4187 H         1 <0>         0.1391
     45 H14        -3.8016   -4.7257    3.2143 H         1 <0>         0.1314
     46 H15        -2.9782   -2.9277    1.7499 H         1 <0>         0.1271
     47 H16        -3.2405   -7.0376    4.1228 H         1 <0>         0.4265
     48 H17         1.3896   -6.5278    6.6067 H         1 <0>         0.1859
     49 H18         1.8371   -8.2141    8.4934 H         1 <0>         0.1531
     50 H19         1.0125  -10.1443    9.7592 H         1 <0>         0.1613
     51 H20        -3.3945   -9.8888    6.5677 H         1 <0>         0.1113
     52 H21        -3.3046  -10.8677    9.4574 H         1 <0>         0.0901
     53 H22        -3.9423   -9.2977    8.9127 H         1 <0>         0.0596
     54 H23        -5.7729  -10.9395    9.2316 H         1 <0>         0.0691
     55 H24        -5.6303  -10.4658    7.5218 H         1 <0>         0.0619
     56 H25        -4.4453  -12.9837    8.7761 H         1 <0>         0.0674
     57 H26        -5.8956  -12.9210    7.7460 H         1 <0>         0.0660
     58 H27        -3.8975  -13.5748    6.4310 H         1 <0>         0.0690
     59 H28        -4.5351  -12.0047    5.8863 H         1 <0>         0.0618
     60 H29        -2.0668  -11.9330    6.1121 H         1 <0>         0.0593
     61 H30        -2.2095  -12.4067    7.8219 H         1 <0>         0.0901
     62 H31         0.5201   -0.4327   -0.9315 H         1 <0>         0.4247
@<TRIPOS>BOND
     1    1    2 1
     2    1   32 1
     3    1   33 1
     4    1   34 1
     5    2    7 1
     6    2    3 1
     7    2   62 1
     8    3    4 1
     9    3   35 1
    10    3   36 1
    11    4    5 1
    12    4   37 1
    13    4   38 1
    14    5    6 1
    15    5    8 1
    16    6    7 1
    17    6   39 1
    18    6   40 1
    19    7   41 1
    20    7   42 1
    21    8   13 ar
    22    8    9 ar
    23    9   10 ar
    24    9   43 1
    25   10   11 ar
    26   10   44 1
    27   11   12 ar
    28   11   14 1
    29   12   13 ar
    30   12   45 1
    31   13   46 1
    32   14   15 1
    33   14   47 1
    34   15   25 ar
    35   15   16 ar
    36   16   17 ar
    37   17   18 ar
    38   17   48 1
    39   18   24 ar
    40   18   19 1
    41   19   20 2
    42   19   49 1
    43   20   21 1
    44   20   50 1
    45   21   22 2
    46   21   23 am
    47   23   24 1
    48   23   26 1
    49   24   25 ar
    50   26   31 1
    51   26   27 1
    52   26   51 1
    53   27   28 1
    54   27   52 1
    55   27   53 1
    56   28   29 1
    57   28   54 1
    58   28   55 1
    59   29   30 1
    60   29   56 1
    61   29   57 1
    62   30   31 1
    63   30   58 1
    64   30   59 1
    65   31   60 1
    66   31   61 1
@<TRIPOS>MOLECULE
CHEMBL140808__1
   61    65     0     0     0
SMALL
USER_CHARGES

@<TRIPOS>ATOM
      1 C1          0.6741   -0.9859   -2.9165 C.3       1 <0>         0.0242
      2 N1          0.3683   -1.2731   -1.5087 N.3       1 <0>        -0.5427
      3 C2          1.2209   -2.3532   -0.9945 C.3       1 <0>         0.0380
      4 C3          1.0004   -2.4988    0.5150 C.3       1 <0>         0.1257
      5 N2         -0.4391   -2.6716    0.7623 N.pl3     1 <0>        -0.6312
      6 C4         -1.3694   -1.7031    0.1625 C.3       1 <0>         0.1261
      7 C5         -1.0556   -1.5887   -1.3331 C.3       1 <0>         0.0384
      8 C6         -0.9111   -3.7296    1.5472 C.ar      1 <0>         0.2127
      9 C7         -0.0289   -4.6950    2.0144 C.ar      1 <0>        -0.1818
     10 C8         -0.4947   -5.7389    2.7888 C.ar      1 <0>        -0.0540
     11 C9         -1.8454   -5.8237    3.1002 C.ar      1 <0>         0.0929
     12 C10        -2.7277   -4.8586    2.6327 C.ar      1 <0>        -0.0886
     13 C11        -2.2609   -3.8110    1.8638 C.ar      1 <0>        -0.1811
     14 N3         -2.3179   -6.8830    3.8854 N.pl3     1 <0>        -0.6227
     15 C12        -1.5317   -7.3959    4.8986 C.ar      1 <0>         0.6062
     16 N4         -0.3839   -6.7908    5.1857 N.ar      1 <0>        -0.5694
     17 C13         0.4050   -7.2401    6.1448 C.ar      1 <0>         0.2585
     18 C14         0.0053   -8.3756    6.8592 C.ar      1 <0>        -0.2919
     19 C15         0.8163   -8.9381    7.9346 C.2       1 <0>         0.0125
     20 C16         0.3557  -10.0424    8.5786 C.2       1 <0>        -0.2346
     21 C17        -0.8754  -10.6185    8.2055 C.2       1 <0>         0.5433
     22 O1         -1.2696  -11.6088    8.7965 O.2       1 <0>        -0.5166
     23 N5         -1.6273  -10.1051    7.2157 N.am      1 <0>        -0.5027
     24 C18        -1.2207   -8.9920    6.5262 C.ar      1 <0>         0.4639
     25 N6         -1.9529   -8.4691    5.5509 N.ar      1 <0>        -0.5992
     26 C19        -2.8991  -10.7443    6.8692 C.3       1 <0>         0.1344
     27 C20        -3.8238  -10.7340    8.0881 C.3       1 <0>        -0.1341
     28 C21        -5.1521  -11.4016    7.7263 C.3       1 <0>        -0.1122
     29 C22        -4.8954  -12.8464    7.2931 C.3       1 <0>        -0.1222
     30 C23        -3.9707  -12.8567    6.0742 C.3       1 <0>        -0.1123
     31 C24        -2.6424  -12.1891    6.4360 C.3       1 <0>        -0.1340
     32 H1          0.0833   -0.1328   -3.2499 H         1 <0>         0.0707
     33 H2          1.7346   -0.7555   -3.0182 H         1 <0>         0.0704
     34 H3          0.4314   -1.8564   -3.5259 H         1 <0>         0.0258
     35 H4          0.9629   -3.2883   -1.4916 H         1 <0>         0.0384
     36 H5          2.2667   -2.1145   -1.1879 H         1 <0>         0.0859
     37 H6          1.5421   -3.3707    0.8817 H         1 <0>         0.0874
     38 H7          1.3547   -1.6030    1.0249 H         1 <0>         0.0705
     39 H8         -2.3944   -2.0488    0.2962 H         1 <0>         0.0864
     40 H9         -1.2429   -0.7307    0.6385 H         1 <0>         0.0702
     41 H10        -1.6608   -0.7956   -1.7721 H         1 <0>         0.0858
     42 H11        -1.2819   -2.5345   -1.8255 H         1 <0>         0.0384
     43 H12         1.0214   -4.6295    1.7717 H         1 <0>         0.1255
     44 H13         0.1913   -6.4897    3.1522 H         1 <0>         0.1318
     45 H14        -3.7781   -4.9247    2.8745 H         1 <0>         0.1241
     46 H15        -2.9463   -3.0578    1.5042 H         1 <0>         0.1265
     47 H16        -3.1973   -7.2564    3.7177 H         1 <0>         0.4230
     48 H17         1.3366   -6.7434    6.3724 H         1 <0>         0.1845
     49 H18         1.7584   -8.4883    8.2111 H         1 <0>         0.1511
     50 H19         0.9347  -10.4802    9.3782 H         1 <0>         0.1581
     51 H20        -3.3695  -10.1980    6.0517 H         1 <0>         0.1117
     52 H21        -3.3534  -11.2803    8.9057 H         1 <0>         0.0894
     53 H22        -4.0067   -9.7047    8.3967 H         1 <0>         0.0596
     54 H23        -5.8109  -11.3943    8.5946 H         1 <0>         0.0676
     55 H24        -5.6225  -10.8553    6.9087 H         1 <0>         0.0623
     56 H25        -4.4250  -13.3927    8.1106 H         1 <0>         0.0663
     57 H26        -5.8416  -13.3220    7.0353 H         1 <0>         0.0644
     58 H27        -3.7878  -13.8860    5.7656 H         1 <0>         0.0675
     59 H28        -4.4411  -12.3104    5.2566 H         1 <0>         0.0623
     60 H29        -1.9837  -12.1964    5.5676 H         1 <0>         0.0595
     61 H30        -2.1720  -12.7354    7.2536 H         1 <0>         0.0894
@<TRIPOS>BOND
     1    1    2 1
     2    1   32 1
     3    1   33 1
     4    1   34 1
     5    2    7 1
     6    2    3 1
     7    3    4 1
     8    3   35 1
     9    3   36 1
    10    4    5 1
    11    4   37 1
    12    4   38 1
    13    5    6 1
    14    5    8 1
    15    6    7 1
    16    6   39 1
    17    6   40 1
    18    7   41 1
    19    7   42 1
    20    8   13 ar
    21    8    9 ar
    22    9   10 ar
    23    9   43 1
    24   10   11 ar
    25   10   44 1
    26   11   12 ar
    27   11   14 1
    28   12   13 ar
    29   12   45 1
    30   13   46 1
    31   14   15 1
    32   14   47 1
    33   15   25 ar
    34   15   16 ar
    35   16   17 ar
    36   17   18 ar
    37   17   48 1
    38   18   24 ar
    39   18   19 1
    40   19   20 2
    41   19   49 1
    42   20   21 1
    43   20   50 1
    44   21   22 2
    45   21   23 am
    46   23   24 1
    47   23   26 1
    48   24   25 ar
    49   26   31 1
    50   26   27 1
    51   26   51 1
    52   27   28 1
    53   27   52 1
    54   27   53 1
    55   28   29 1
    56   28   54 1
    57   28   55 1
    58   29   30 1
    59   29   56 1
    60   29   57 1
    61   30   31 1
    62   30   58 1
    63   30   59 1
    64   31   60 1
    65   31   61 1
@<TRIPOS>MOLECULE
CHEMBL526658
   53    57     0     0     0
SMALL
USER_CHARGES

@<TRIPOS>ATOM
      1 C1          2.7410    1.4503    0.0550 C.ar      1 <0>        -0.1506
      2 C2          4.0391    1.9042    0.2416 C.ar      1 <0>        -0.0498
      3 C3          5.0821    1.0138    0.3808 C.ar      1 <0>        -0.1658
      4 C4          4.8343   -0.3544    0.3347 C.ar      1 <0>         0.2162
      5 C5          3.5172   -0.8092    0.1460 C.ar      1 <0>        -0.1505
      6 C6          2.4744    0.1108    0.0065 C.ar      1 <0>        -0.0493
      7 C7          3.2625   -2.2548    0.0984 C.2       1 <0>         0.3664
      8 C8          4.3490   -3.1195    0.2439 C.2       1 <0>        -0.2956
      9 C9          5.6467   -2.5869    0.4306 C.2       1 <0>         0.5783
     10 O1          6.5895   -3.3490    0.5564 O.2       1 <0>        -0.5599
     11 N1          5.8652   -1.2622    0.4726 N.am      1 <0>        -0.6372
     12 H1          6.7692   -0.9355    0.6022 H         1 <0>         0.4185
     13 C10         4.1456   -4.5775    0.2039 C.2       1 <0>         0.3858
     14 N2          3.0122   -5.1749   -0.0828 N.2       1 <0>        -0.5282
     15 C11         3.1799   -6.5205   -0.0290 C.ar      1 <0>         0.0272
     16 C12         2.3200   -7.6026   -0.2416 C.ar      1 <0>        -0.0325
     17 C13         2.7858   -8.8801   -0.1118 C.ar      1 <0>        -0.2038
     18 C14         4.1132   -9.1187    0.2319 C.ar      1 <0>         0.1439
     19 C15         4.9805   -8.0619    0.4465 C.ar      1 <0>        -0.1508
     20 C16         4.5211   -6.7593    0.3177 C.ar      1 <0>         0.0866
     21 N3          5.1129   -5.5166    0.4547 N.pl3     1 <0>        -0.5819
     22 O2          4.5600  -10.3967    0.3578 O.3       1 <0>        -0.2959
     23 C17         3.6133  -11.4410    0.1231 C.3       1 <0>         0.0669
     24 C18         4.2944  -12.7983    0.3099 C.3       1 <0>         0.0544
     25 N4          4.7248  -12.9419    1.7071 N.3       1 <0>        -0.5304
     26 C19         5.7563  -13.9814    1.8364 C.3       1 <0>         0.0187
     27 C20         6.2177  -14.0564    3.2943 C.3       1 <0>         0.0628
     28 O3          5.0878  -14.3073    4.1343 O.3       1 <0>        -0.3856
     29 C21         4.0639  -13.3139    4.0340 C.3       1 <0>         0.0634
     30 C22         3.5806  -13.2315    2.5837 C.3       1 <0>         0.0143
     31 N5          1.9909   -2.7425   -0.0838 N.pl3     1 <0>        -0.8043
     32 H2          1.9345    2.1611   -0.0482 H         1 <0>         0.1349
     33 H3          4.2341    2.9658    0.2777 H         1 <0>         0.1370
     34 H4          6.0889    1.3773    0.5249 H         1 <0>         0.1399
     35 H5          1.4618   -0.2355   -0.1386 H         1 <0>         0.1328
     36 H6          1.2879   -7.4284   -0.5080 H         1 <0>         0.1309
     37 H7          2.1179   -9.7125   -0.2769 H         1 <0>         0.1321
     38 H8          6.0099   -8.2503    0.7134 H         1 <0>         0.1305
     39 H9          2.7879  -11.3485    0.8288 H         1 <0>         0.0628
     40 H10         3.2315  -11.3632   -0.8949 H         1 <0>         0.0681
     41 H11         3.5922  -13.5943    0.0623 H         1 <0>         0.0613
     42 H12         5.1625  -12.8625   -0.3461 H         1 <0>         0.0882
     43 H13         5.3427  -14.9440    1.5356 H         1 <0>         0.0432
     44 H14         6.6046  -13.7337    1.1984 H         1 <0>         0.0885
     45 H15         6.9410  -14.8641    3.4061 H         1 <0>         0.0990
     46 H16         6.6800  -13.1111    3.5788 H         1 <0>         0.0614
     47 H17         3.2294  -13.5848    4.6809 H         1 <0>         0.0985
     48 H18         4.4635  -12.3471    4.3400 H         1 <0>         0.0611
     49 H19         2.8408  -12.4364    2.4911 H         1 <0>         0.0857
     50 H20         3.1323  -14.1821    2.2948 H         1 <0>         0.0442
     51 H21         1.2338   -2.1361   -0.0810 H         1 <0>         0.4007
     52 H22         1.8502   -3.6933   -0.2152 H         1 <0>         0.4328
     53 H23         6.0385   -5.3421    0.6865 H         1 <0>         0.4352
@<TRIPOS>BOND
     1    1    6 ar
     2    1    2 ar
     3    1   32 1
     4    2    3 ar
     5    2   33 1
     6    3    4 ar
     7    3   34 1
     8    4   11 1
     9    4    5 ar
    10    5    6 ar
    11    5    7 1
    12    6   35 1
    13    7    8 2
    14    7   31 1
    15    8    9 1
    16    8   13 1
    17    9   10 2
    18    9   11 am
    19   11   12 1
    20   13   21 1
    21   13   14 2
    22   14   15 1
    23   15   20 ar
    24   15   16 ar
    25   16   17 ar
    26   16   36 1
    27   17   18 ar
    28   17   37 1
    29   18   19 ar
    30   18   22 1
    31   19   20 ar
    32   19   38 1
    33   20   21 1
    34   21   53 1
    35   22   23 1
    36   23   24 1
    37   23   39 1
    38   23   40 1
    39   24   25 1
    40   24   41 1
    41   24   42 1
    42   25   30 1
    43   25   26 1
    44   26   27 1
    45   26   43 1
    46   26   44 1
    47   27   28 1
    48   27   45 1
    49   27   46 1
    50   28   29 1
    51   29   30 1
    52   29   47 1
    53   29   48 1
    54   30   49 1
    55   30   50 1
    56   31   51 1
    57   31   52 1
@<TRIPOS>MOLECULE
CHEMBL526658__1
   54    58     0     0     0
SMALL
USER_CHARGES

@<TRIPOS>ATOM
      1 C1         -1.1662    1.8755   -0.6816 C.ar      1 <0>        -0.1478
      2 C2          0.0436    2.5553   -0.6856 C.ar      1 <0>        -0.0441
      3 C3          1.2368    1.8678   -0.6258 C.ar      1 <0>        -0.1648
      4 C4          1.2316    0.4781   -0.5608 C.ar      1 <0>         0.2184
      5 C5          0.0032   -0.2062   -0.5570 C.ar      1 <0>        -0.1569
      6 C6         -1.1950    0.5106   -0.6183 C.ar      1 <0>        -0.0483
      7 C7          0.0049   -1.6732   -0.4882 C.2       1 <0>         0.3801
      8 C8          1.2369   -2.3278   -0.4291 C.2       1 <0>        -0.3111
      9 C9          2.4324   -1.5705   -0.4370 C.2       1 <0>         0.5812
     10 O1          3.5033   -2.1499   -0.3855 O.2       1 <0>        -0.5625
     11 N1          2.4159   -0.2288   -0.4999 N.am      1 <0>        -0.6361
     12 H1          3.2565    0.2552   -0.5035 H         1 <0>         0.4209
     13 C10         1.2919   -3.7974   -0.3583 C.2       1 <0>         0.4182
     14 N2          2.4308   -4.5360   -0.1720 N.pl3     1 <0>        -0.5794
     15 H2          3.3304   -4.1897   -0.0644 H         1 <0>         0.4389
     16 C11         2.0565   -5.8697   -0.1654 C.ar      1 <0>         0.0212
     17 C12         2.7527   -7.0606   -0.0201 C.ar      1 <0>        -0.0568
     18 C13         2.0769   -8.2620   -0.0606 C.ar      1 <0>        -0.1937
     19 C14         0.6977   -8.2884   -0.2466 C.ar      1 <0>         0.1061
     20 C15        -0.0102   -7.1123   -0.3933 C.ar      1 <0>        -0.1053
     21 C16         0.6638   -5.8874   -0.3537 C.ar      1 <0>         0.1064
     22 N3          0.2557   -4.5985   -0.4587 N.2       1 <0>        -0.5427
     23 O2          0.0437   -9.4800   -0.2845 O.3       1 <0>        -0.3287
     24 C17         0.8348  -10.6596   -0.1268 C.3       1 <0>         0.0268
     25 C18        -0.0684  -11.8925   -0.1967 C.3       1 <0>         0.0001
     26 N4         -0.6806  -11.9761   -1.5294 N.4       1 <0>        -0.3867
     27 C19        -1.6579  -13.0731   -1.5518 C.3       1 <0>        -0.0435
     28 C20        -2.2945  -13.1579   -2.9412 C.3       1 <0>         0.0353
     29 O3         -1.2684  -13.3485   -3.9192 O.3       1 <0>        -0.3565
     30 C21        -0.2780  -12.3166   -3.9204 C.3       1 <0>         0.0369
     31 C22         0.3624  -12.2302   -2.5327 C.3       1 <0>        -0.0497
     32 N5         -1.1723   -2.3813   -0.4817 N.pl3     1 <0>        -0.8015
     33 H3         -2.0923    2.4295   -0.7244 H         1 <0>         0.1375
     34 H4          0.0503    3.6341   -0.7363 H         1 <0>         0.1400
     35 H5          2.1730    2.4063   -0.6298 H         1 <0>         0.1423
     36 H6         -2.1401   -0.0121   -0.6153 H         1 <0>         0.1334
     37 H7          3.8229   -7.0471    0.1241 H         1 <0>         0.1322
     38 H8          2.6211   -9.1880    0.0524 H         1 <0>         0.1328
     39 H9         -1.0801   -7.1379   -0.5381 H         1 <0>         0.1369
     40 H10         1.5778  -10.7078   -0.9228 H         1 <0>         0.0856
     41 H11         1.3387  -10.6326    0.8394 H         1 <0>         0.1108
     42 H12         0.5247  -12.7883   -0.0125 H         1 <0>         0.1497
     43 H13        -0.8506  -11.8131    0.5582 H         1 <0>         0.1443
     44 H14        -1.1548  -14.0129   -1.3243 H         1 <0>         0.1397
     45 H15        -2.4322  -12.8855   -0.8079 H         1 <0>         0.1439
     46 H16        -2.9883  -13.9980   -2.9731 H         1 <0>         0.1426
     47 H17        -2.8316  -12.2333   -3.1526 H         1 <0>         0.0818
     48 H18         0.4877  -12.5478   -4.6609 H         1 <0>         0.1422
     49 H19        -0.7460  -11.3631   -4.1653 H         1 <0>         0.0821
     50 H20         1.0879  -11.4169   -2.5170 H         1 <0>         0.1410
     51 H21         0.8647  -13.1703   -2.3049 H         1 <0>         0.1407
     52 H22        -2.0203   -1.9122   -0.4403 H         1 <0>         0.4037
     53 H23        -1.1555   -3.3505   -0.5184 H         1 <0>         0.4315
     54 H24        -1.1461  -11.1062   -1.7409 H         1 <0>         0.4309
@<TRIPOS>BOND
     1    1    6 ar
     2    1    2 ar
     3    1   33 1
     4    2    3 ar
     5    2   34 1
     6    3    4 ar
     7    3   35 1
     8    4   11 1
     9    4    5 ar
    10    5    6 ar
    11    5    7 1
    12    6   36 1
    13    7    8 2
    14    7   32 1
    15    8    9 1
    16    8   13 1
    17    9   10 2
    18    9   11 am
    19   11   12 1
    20   13   22 2
    21   13   14 1
    22   14   15 1
    23   14   16 1
    24   16   21 ar
    25   16   17 ar
    26   17   18 ar
    27   17   37 1
    28   18   19 ar
    29   18   38 1
    30   19   20 ar
    31   19   23 1
    32   20   21 ar
    33   20   39 1
    34   21   22 1
    35   23   24 1
    36   24   25 1
    37   24   40 1
    38   24   41 1
    39   25   26 1
    40   25   42 1
    41   25   43 1
    42   26   31 1
    43   26   27 1
    44   26   54 1
    45   27   28 1
    46   27   44 1
    47   27   45 1
    48   28   29 1
    49   28   46 1
    50   28   47 1
    51   29   30 1
    52   30   31 1
    53   30   48 1
    54   30   49 1
    55   31   50 1
    56   31   51 1
    57   32   52 1
    58   32   53 1
@<TRIPOS>MOLECULE
CHEMBL526658__2
   53    57     0     0     0
SMALL
USER_CHARGES

@<TRIPOS>ATOM
      1 C1         -2.5337    1.3658   -0.4888 C.ar      1 <0>        -0.1505
      2 C2         -1.4886    2.2754   -0.5675 C.ar      1 <0>        -0.0492
      3 C3         -0.1795    1.8439   -0.5703 C.ar      1 <0>        -0.1660
      4 C4          0.1003    0.4832   -0.4935 C.ar      1 <0>         0.2168
      5 C5         -0.9621   -0.4344   -0.4139 C.ar      1 <0>        -0.1514
      6 C6         -2.2822    0.0247   -0.4126 C.ar      1 <0>        -0.0487
      7 C7         -0.6598   -1.8693   -0.3331 C.2       1 <0>         0.3701
      8 C8          0.6806   -2.2608   -0.3390 C.2       1 <0>        -0.3006
      9 C9          1.6958   -1.2783   -0.4216 C.2       1 <0>         0.5793
     10 O1          2.8630   -1.6287   -0.4266 O.2       1 <0>        -0.5607
     11 N1          1.4046    0.0310   -0.4945 N.am      1 <0>        -0.6374
     12 H1          2.1285    0.6744   -0.5503 H         1 <0>         0.4186
     13 C10         1.0356   -3.6875   -0.2594 C.2       1 <0>         0.3999
     14 N2          2.3085   -4.1773   -0.1286 N.pl3     1 <0>        -0.5814
     15 H2          3.1237   -3.6546   -0.0723 H         1 <0>         0.4342
     16 C11         2.2130   -5.5587   -0.0909 C.ar      1 <0>         0.0105
     17 C12         3.1425   -6.5817    0.0264 C.ar      1 <0>        -0.0655
     18 C13         2.7229   -7.8952    0.0322 C.ar      1 <0>        -0.1905
     19 C14         1.3700   -8.2030   -0.0791 C.ar      1 <0>         0.1276
     20 C15         0.4320   -7.1970   -0.1971 C.ar      1 <0>        -0.1186
     21 C16         0.8450   -5.8608   -0.2038 C.ar      1 <0>         0.1048
     22 N3          0.1795   -4.6830   -0.2973 N.2       1 <0>        -0.5397
     23 O2          0.9699   -9.5026   -0.0720 O.3       1 <0>        -0.2966
     24 C17         1.9905  -10.4950    0.0525 C.3       1 <0>         0.0670
     25 C18         1.3535  -11.8860    0.0414 C.3       1 <0>         0.0548
     26 N4          0.7110  -12.1199   -1.2588 N.3       1 <0>        -0.5298
     27 C19        -0.2805  -13.2016   -1.1695 C.3       1 <0>         0.0187
     28 C20        -0.9665  -13.3713   -2.5277 C.3       1 <0>         0.0628
     29 O3          0.0238  -13.6257   -3.5277 O.3       1 <0>        -0.3858
     30 C21         1.0052  -12.5918   -3.6422 C.3       1 <0>         0.0635
     31 C22         1.7111  -12.4142   -2.2954 C.3       1 <0>         0.0144
     32 N5         -1.6672   -2.8000   -0.2534 N.pl3     1 <0>        -0.8022
     33 H3         -3.5537    1.7208   -0.4832 H         1 <0>         0.1352
     34 H4         -1.7032    3.3322   -0.6275 H         1 <0>         0.1372
     35 H5          0.6267    2.5599   -0.6323 H         1 <0>         0.1400
     36 H6         -3.1003   -0.6777   -0.3513 H         1 <0>         0.1333
     37 H7          4.1937   -6.3496    0.1128 H         1 <0>         0.1257
     38 H8          3.4484   -8.6900    0.1234 H         1 <0>         0.1325
     39 H9         -0.6165   -7.4408   -0.2840 H         1 <0>         0.1350
     40 H10         2.6863  -10.4073   -0.7819 H         1 <0>         0.0615
     41 H11         2.5272  -10.3486    0.9899 H         1 <0>         0.0667
     42 H12         2.1234  -12.6396    0.2070 H         1 <0>         0.0606
     43 H13         0.6064  -11.9498    0.8325 H         1 <0>         0.0882
     44 H14         0.2185  -14.1310   -0.8952 H         1 <0>         0.0428
     45 H15        -1.0255  -12.9511   -0.4143 H         1 <0>         0.0886
     46 H16        -1.6616  -14.2097   -2.4822 H         1 <0>         0.0988
     47 H17        -1.5101  -12.4601   -2.7773 H         1 <0>         0.0617
     48 H18         1.7361  -12.8664   -4.4028 H         1 <0>         0.0983
     49 H19         0.5190  -11.6579   -3.9242 H         1 <0>         0.0615
     50 H20         2.4200  -11.5889   -2.3619 H         1 <0>         0.0856
     51 H21         2.2420  -13.3310   -2.0390 H         1 <0>         0.0438
     52 H22        -2.5871   -2.5112   -0.1477 H         1 <0>         0.4013
     53 H23        -1.4585   -3.7460   -0.3030 H         1 <0>         0.4337
@<TRIPOS>BOND
     1    1    6 ar
     2    1    2 ar
     3    1   33 1
     4    2    3 ar
     5    2   34 1
     6    3    4 ar
     7    3   35 1
     8    4   11 1
     9    4    5 ar
    10    5    6 ar
    11    5    7 1
    12    6   36 1
    13    7    8 2
    14    7   32 1
    15    8    9 1
    16    8   13 1
    17    9   10 2
    18    9   11 am
    19   11   12 1
    20   13   22 2
    21   13   14 1
    22   14   15 1
    23   14   16 1
    24   16   21 ar
    25   16   17 ar
    26   17   18 ar
    27   17   37 1
    28   18   19 ar
    29   18   38 1
    30   19   20 ar
    31   19   23 1
    32   20   21 ar
    33   20   39 1
    34   21   22 1
    35   23   24 1
    36   24   25 1
    37   24   40 1
    38   24   41 1
    39   25   26 1
    40   25   42 1
    41   25   43 1
    42   26   31 1
    43   26   27 1
    44   27   28 1
    45   27   44 1
    46   27   45 1
    47   28   29 1
    48   28   46 1
    49   28   47 1
    50   29   30 1
    51   30   31 1
    52   30   48 1
    53   30   49 1
    54   31   50 1
    55   31   51 1
    56   32   52 1
    57   32   53 1
@<TRIPOS>MOLECULE
CHEMBL498214
   53    57     0     0     0
SMALL
USER_CHARGES

@<TRIPOS>ATOM
      1 C1          0.5290   -4.3525   -3.4577 C.3       1 <0>        -0.0469
      2 N1          0.3473   -3.6462   -2.1825 N.4       1 <0>        -0.3858
      3 C2          1.0923   -4.3450   -1.1276 C.3       1 <0>        -0.0226
      4 C3          0.9978   -3.5472    0.1772 C.3       1 <0>         0.0696
      5 N2         -0.4232   -3.3224    0.4844 N.am      1 <0>        -0.6309
      6 C4         -1.2834   -2.7745   -0.5757 C.3       1 <0>         0.0890
      7 C5         -1.0812   -3.6088   -1.8449 C.3       1 <0>        -0.0201
      8 C6         -0.9228   -3.6107    1.7025 C.2       1 <0>         0.5811
      9 O1         -2.0808   -3.3471    1.9625 O.2       1 <0>        -0.5033
     10 C7         -0.0637   -4.2466    2.7214 C.ar      1 <0>        -0.1559
     11 C8          1.2383   -3.7738    2.9310 C.ar      1 <0>        -0.1023
     12 C9          2.0422   -4.3533    3.8699 C.ar      1 <0>        -0.0969
     13 C10         1.5746   -5.4206    4.6275 C.ar      1 <0>         0.0665
     14 C11         0.2692   -5.9091    4.4306 C.ar      1 <0>         0.0630
     15 C12        -0.5516   -5.3104    3.4745 C.ar      1 <0>        -0.0064
     16 N3          0.0903   -6.9382    5.2966 N.2       1 <0>        -0.5326
     17 C13         1.1833   -7.1128    6.0030 C.2       1 <0>         0.4120
     18 N4          2.1304   -6.1966    5.6245 N.pl3     1 <0>        -0.5770
     19 H1          3.0250   -6.1101    5.9894 H         1 <0>         0.4403
     20 C14         1.3644   -8.1376    7.0443 C.2       1 <0>        -0.3114
     21 C15         0.3779   -9.1024    7.2594 C.2       1 <0>         0.3802
     22 C16         0.6060  -10.1034    8.3095 C.ar      1 <0>        -0.1569
     23 C17        -0.3407  -11.0966    8.5756 C.ar      1 <0>        -0.0482
     24 C18        -0.1015  -12.0154    9.5586 C.ar      1 <0>        -0.1475
     25 C19         1.0741  -11.9699   10.2947 C.ar      1 <0>        -0.0439
     26 C20         2.0207  -10.9986   10.0488 C.ar      1 <0>        -0.1648
     27 C21         1.7987  -10.0531    9.0525 C.ar      1 <0>         0.2183
     28 N5          2.7350   -9.0732    8.7900 N.am      1 <0>        -0.6358
     29 H2          3.5538   -9.0497    9.3095 H         1 <0>         0.4210
     30 C22         2.5419   -8.1544    7.8293 C.2       1 <0>         0.5818
     31 O2          3.3998   -7.3116    7.6319 O.2       1 <0>        -0.5635
     32 N6         -0.7734   -9.1145    6.5101 N.pl3     1 <0>        -0.8012
     33 H3         -0.0171   -3.8303   -4.2433 H         1 <0>         0.1257
     34 H4          1.5891   -4.3810   -3.7094 H         1 <0>         0.1256
     35 H5          0.1497   -5.3703   -3.3665 H         1 <0>         0.1219
     36 H6          0.6668   -5.3373   -0.9784 H         1 <0>         0.1342
     37 H7          2.1377   -4.4381   -1.4217 H         1 <0>         0.1447
     38 H8          1.4626   -4.1112    0.9858 H         1 <0>         0.1457
     39 H9          1.5028   -2.5886    0.0578 H         1 <0>         0.0990
     40 H10        -2.3268   -2.8277   -0.2648 H         1 <0>         0.1366
     41 H11        -1.0088   -1.7380   -0.7711 H         1 <0>         0.0961
     42 H12        -1.6375   -3.1595   -2.6676 H         1 <0>         0.1447
     43 H13        -1.4410   -4.6234   -1.6741 H         1 <0>         0.1336
     44 H14         1.6087   -2.9453    2.3456 H         1 <0>         0.1354
     45 H15         3.0444   -3.9817    4.0242 H         1 <0>         0.1342
     46 H16        -1.5567   -5.6728    3.3168 H         1 <0>         0.1389
     47 H17        -1.2578  -11.1375    8.0068 H         1 <0>         0.1335
     48 H18        -0.8332  -12.7826    9.7644 H         1 <0>         0.1376
     49 H19         1.2489  -12.7029   11.0683 H         1 <0>         0.1401
     50 H20         2.9320  -10.9715   10.6278 H         1 <0>         0.1424
     51 H21        -0.9491   -8.3989    5.8793 H         1 <0>         0.4315
     52 H22        -1.4107   -9.8387    6.6119 H         1 <0>         0.4042
     53 H23         0.6960   -2.7034   -2.2690 H         1 <0>         0.4255
@<TRIPOS>BOND
     1    1    2 1
     2    1   33 1
     3    1   34 1
     4    1   35 1
     5    2    7 1
     6    2    3 1
     7    2   53 1
     8    3    4 1
     9    3   36 1
    10    3   37 1
    11    4    5 1
    12    4   38 1
    13    4   39 1
    14    5    6 1
    15    5    8 am
    16    6    7 1
    17    6   40 1
    18    6   41 1
    19    7   42 1
    20    7   43 1
    21    8    9 2
    22    8   10 1
    23   10   15 ar
    24   10   11 ar
    25   11   12 ar
    26   11   44 1
    27   12   13 ar
    28   12   45 1
    29   13   18 1
    30   13   14 ar
    31   14   15 ar
    32   14   16 1
    33   15   46 1
    34   16   17 2
    35   17   18 1
    36   17   20 1
    37   18   19 1
    38   20   30 1
    39   20   21 2
    40   21   22 1
    41   21   32 1
    42   22   27 ar
    43   22   23 ar
    44   23   24 ar
    45   23   47 1
    46   24   25 ar
    47   24   48 1
    48   25   26 ar
    49   25   49 1
    50   26   27 ar
    51   26   50 1
    52   27   28 1
    53   28   29 1
    54   28   30 am
    55   30   31 2
    56   32   51 1
    57   32   52 1
@<TRIPOS>MOLECULE
CHEMBL498214__1
   52    56     0     0     0
SMALL
USER_CHARGES

@<TRIPOS>ATOM
      1 C1          0.7595   -4.2118   -3.6435 C.3       1 <0>         0.0244
      2 N1          0.4988   -3.6079   -2.3300 N.3       1 <0>        -0.5434
      3 C2          1.2417   -4.3065   -1.2726 C.3       1 <0>         0.0384
      4 C3          1.0882   -3.5410    0.0460 C.3       1 <0>         0.0977
      5 N2         -0.3459   -3.3538    0.3133 N.am      1 <0>        -0.6093
      6 C4         -1.1839   -2.7844   -0.7528 C.3       1 <0>         0.1168
      7 C5         -0.9410   -3.5796   -2.0400 C.3       1 <0>         0.0401
      8 C6         -0.8779   -3.6944    1.5039 C.2       1 <0>         0.5686
      9 O1         -2.0487   -3.4622    1.7353 O.2       1 <0>        -0.5329
     10 C7         -0.0389   -4.3498    2.5271 C.ar      1 <0>        -0.1382
     11 C8          1.2443   -3.8572    2.7984 C.ar      1 <0>        -0.0866
     12 C9          2.0295   -4.4544    3.7421 C.ar      1 <0>        -0.1063
     13 C10         1.5615   -5.5592    4.4432 C.ar      1 <0>         0.0637
     14 C11         0.2748   -6.0680    4.1841 C.ar      1 <0>         0.0578
     15 C12        -0.5272   -5.4514    3.2234 C.ar      1 <0>        -0.0130
     16 N3          0.0907   -7.1327    5.0048 N.2       1 <0>        -0.5297
     17 C13         1.1634   -7.3102    5.7411 C.2       1 <0>         0.3964
     18 N4          2.1014   -6.3602    5.4292 N.pl3     1 <0>        -0.5787
     19 H1          2.9812   -6.2682    5.8273 H         1 <0>         0.4370
     20 C14         1.3331   -8.3695    6.7493 C.2       1 <0>        -0.3023
     21 C15         0.3621   -9.3626    6.8950 C.2       1 <0>         0.3717
     22 C16         0.5779  -10.3974    7.9145 C.ar      1 <0>        -0.1521
     23 C17        -0.3543  -11.4198    8.1114 C.ar      1 <0>        -0.0486
     24 C18        -0.1270  -12.3697    9.0673 C.ar      1 <0>        -0.1500
     25 C19         1.0222  -12.3269    9.8440 C.ar      1 <0>        -0.0483
     26 C20         1.9542  -11.3270    9.6665 C.ar      1 <0>        -0.1658
     27 C21         1.7440  -10.3496    8.6989 C.ar      1 <0>         0.2172
     28 N5          2.6660   -9.3407    8.5047 N.am      1 <0>        -0.6370
     29 H2          3.4664   -9.3193    9.0522 H         1 <0>         0.4191
     30 C22         2.4840   -8.3906    7.5726 C.2       1 <0>         0.5801
     31 O2          3.3287   -7.5228    7.4358 O.2       1 <0>        -0.5612
     32 N6         -0.7632   -9.3711    6.1072 N.pl3     1 <0>        -0.8017
     33 H3          0.2586   -3.6295   -4.4169 H         1 <0>         0.0713
     34 H4          1.8329   -4.2202   -3.8329 H         1 <0>         0.0707
     35 H5          0.3805   -5.2337   -3.6553 H         1 <0>         0.0262
     36 H6          0.8459   -5.3154   -1.1557 H         1 <0>         0.0400
     37 H7          2.2965   -4.3582   -1.5425 H         1 <0>         0.0892
     38 H8          1.5400   -4.1133    0.8563 H         1 <0>         0.1045
     39 H9          1.5754   -2.5694   -0.0358 H         1 <0>         0.0809
     40 H10        -2.2343   -2.8563   -0.4707 H         1 <0>         0.0976
     41 H11        -0.9152   -1.7400   -0.9115 H         1 <0>         0.0779
     42 H12        -1.4692   -3.1042   -2.8665 H         1 <0>         0.0897
     43 H13        -1.3065   -4.5986   -1.9124 H         1 <0>         0.0395
     44 H14         1.6150   -2.9994    2.2570 H         1 <0>         0.1387
     45 H15         3.0173   -4.0673    3.9440 H         1 <0>         0.1311
     46 H16        -1.5179   -5.8292    3.0181 H         1 <0>         0.1366
     47 H17        -1.2510  -11.4590    7.5107 H         1 <0>         0.1333
     48 H18        -0.8476  -13.1597    9.2197 H         1 <0>         0.1356
     49 H19         1.1879  -13.0847   10.5956 H         1 <0>         0.1376
     50 H20         2.8450  -11.3023   10.2766 H         1 <0>         0.1405
     51 H21        -0.9338   -8.6364    5.4973 H         1 <0>         0.4331
     52 H22        -1.3872  -10.1117    6.1609 H         1 <0>         0.4020
@<TRIPOS>BOND
     1    1    2 1
     2    1   33 1
     3    1   34 1
     4    1   35 1
     5    2    7 1
     6    2    3 1
     7    3    4 1
     8    3   36 1
     9    3   37 1
    10    4    5 1
    11    4   38 1
    12    4   39 1
    13    5    6 1
    14    5    8 am
    15    6    7 1
    16    6   40 1
    17    6   41 1
    18    7   42 1
    19    7   43 1
    20    8    9 2
    21    8   10 1
    22   10   15 ar
    23   10   11 ar
    24   11   12 ar
    25   11   44 1
    26   12   13 ar
    27   12   45 1
    28   13   18 1
    29   13   14 ar
    30   14   15 ar
    31   14   16 1
    32   15   46 1
    33   16   17 2
    34   17   18 1
    35   17   20 1
    36   18   19 1
    37   20   30 1
    38   20   21 2
    39   21   22 1
    40   21   32 1
    41   22   27 ar
    42   22   23 ar
    43   23   24 ar
    44   23   47 1
    45   24   25 ar
    46   24   48 1
    47   25   26 ar
    48   25   49 1
    49   26   27 ar
    50   26   50 1
    51   27   28 1
    52   28   29 1
    53   28   30 am
    54   30   31 2
    55   32   51 1
    56   32   52 1
@<TRIPOS>MOLECULE
CHEMBL204727
   32    35     0     0     0
SMALL
USER_CHARGES

@<TRIPOS>ATOM
      1 C1          0.1910    1.5332    0.0268 C.ar      1 <0>        -0.1500
      2 C2          1.4256    2.1660   -0.0067 C.ar      1 <0>        -0.0475
      3 C3          2.5917    1.4315   -0.0369 C.ar      1 <0>        -0.1660
      4 C4          2.5337    0.0415   -0.0336 C.ar      1 <0>         0.2182
      5 C5          1.2803   -0.5950    0.0008 C.ar      1 <0>        -0.1531
      6 C6          0.1103    0.1689    0.0307 C.ar      1 <0>        -0.0477
      7 C7          1.2262   -2.0626    0.0043 C.2       1 <0>         0.3764
      8 C8          2.4329   -2.7659   -0.0271 C.2       1 <0>        -0.3068
      9 C9          3.6562   -2.0546   -0.0609 C.2       1 <0>         0.5817
     10 N1          3.6902   -0.7118   -0.0631 N.am      1 <0>        -0.6369
     11 O1          4.7043   -2.6757   -0.0881 O.2       1 <0>        -0.5612
     12 C10         2.4322   -4.2374   -0.0246 C.2       1 <0>         0.4175
     13 N2          3.5476   -5.0266    0.0708 N.pl3     1 <0>        -0.5769
     14 C11         3.1169   -6.3400    0.0367 C.ar      1 <0>        -0.0116
     15 C12         3.7581   -7.5687    0.0929 C.ar      1 <0>        -0.0574
     16 C13         2.9832   -8.7162    0.0295 C.ar      1 <0>        -0.1702
     17 C14         1.6079   -8.6039   -0.0867 C.ar      1 <0>         0.1207
     18 N3          1.0175   -7.4288   -0.1385 N.ar      1 <0>        -0.4550
     19 H1          4.4653   -4.7219    0.1477 H         1 <0>         0.4375
     20 C15         1.7151   -6.2954   -0.0816 C.ar      1 <0>         0.2663
     21 N4          1.3603   -4.9942   -0.1080 N.2       1 <0>        -0.5297
     22 N5          0.0236   -2.7247    0.0378 N.pl3     1 <0>        -0.7983
     23 H2         -0.7131    2.1234    0.0544 H         1 <0>         0.1359
     24 H3          1.4733    3.2449   -0.0093 H         1 <0>         0.1378
     25 H4          3.5475    1.9337   -0.0636 H         1 <0>         0.1407
     26 H5         -0.8538   -0.3171    0.0571 H         1 <0>         0.1338
     27 H6          4.8326   -7.6297    0.1833 H         1 <0>         0.1349
     28 H7          3.4483   -9.6901    0.0701 H         1 <0>         0.1444
     29 H8          1.0069   -9.4998   -0.1362 H         1 <0>         0.1653
     30 H9         -0.8020   -2.2258    0.1397 H         1 <0>         0.4028
     31 H10        -0.0002   -3.6912   -0.0404 H         1 <0>         0.4348
     32 H11         4.5484   -0.2603   -0.0871 H         1 <0>         0.4194
@<TRIPOS>BOND
     1    1    6 ar
     2    1    2 ar
     3    1   23 1
     4    2    3 ar
     5    2   24 1
     6    3    4 ar
     7    3   25 1
     8    4   10 1
     9    4    5 ar
    10    5    6 ar
    11    5    7 1
    12    6   26 1
    13    7    8 2
    14    7   22 1
    15    8    9 1
    16    8   12 1
    17    9   10 am
    18    9   11 2
    19   10   32 1
    20   12   21 2
    21   12   13 1
    22   13   14 1
    23   13   19 1
    24   14   15 ar
    25   14   20 ar
    26   15   16 ar
    27   15   27 1
    28   16   17 ar
    29   16   28 1
    30   17   18 ar
    31   17   29 1
    32   18   20 ar
    33   20   21 1
    34   22   30 1
    35   22   31 1
@<TRIPOS>MOLECULE
CHEMBL204727__1
   32    35     0     0     0
SMALL
USER_CHARGES

@<TRIPOS>ATOM
      1 C1          0.1779    1.5231    0.0283 C.ar      1 <0>        -0.1503
      2 C2          1.4097    2.1614   -0.0049 C.ar      1 <0>        -0.0479
      3 C3          2.5790    1.4322   -0.0356 C.ar      1 <0>        -0.1658
      4 C4          2.5273    0.0419   -0.0330 C.ar      1 <0>         0.2182
      5 C5          1.2768   -0.6001    0.0012 C.ar      1 <0>        -0.1528
      6 C6          0.1034    0.1585    0.0315 C.ar      1 <0>        -0.0482
      7 C7          1.2292   -2.0680    0.0038 C.2       1 <0>         0.3734
      8 C8          2.4386   -2.7657   -0.0281 C.2       1 <0>        -0.3012
      9 C9          3.6587   -2.0492   -0.0615 C.2       1 <0>         0.5792
     10 N1          3.6871   -0.7062   -0.0630 N.am      1 <0>        -0.6368
     11 O1          4.7095   -2.6658   -0.0887 O.2       1 <0>        -0.5575
     12 C10         2.4444   -4.2378   -0.0264 C.2       1 <0>         0.4070
     13 N2          1.3771   -4.9983   -0.1159 N.2       1 <0>        -0.5302
     14 C11         1.7470   -6.3012   -0.0844 C.ar      1 <0>         0.0184
     15 C12         1.0402   -7.5070   -0.1439 C.ar      1 <0>        -0.0321
     16 C13         1.7573   -8.6875   -0.0837 C.ar      1 <0>        -0.1794
     17 C14         3.1369   -8.6437    0.0323 C.ar      1 <0>         0.1288
     18 N3          3.7847   -7.4973    0.0868 N.ar      1 <0>        -0.4805
     19 H1          4.4808   -4.7110    0.1358 H         1 <0>         0.4394
     20 C15         3.1491   -6.3386    0.0335 C.ar      1 <0>         0.2380
     21 N4          3.5652   -5.0228    0.0629 N.pl3     1 <0>        -0.5703
     22 N5          0.0292   -2.7357    0.0370 N.pl3     1 <0>        -0.8018
     23 H2         -0.7288    2.1092    0.0563 H         1 <0>         0.1356
     24 H3          1.4525    3.2406   -0.0069 H         1 <0>         0.1377
     25 H4          3.5326    1.9387   -0.0620 H         1 <0>         0.1407
     26 H5         -0.8586   -0.3318    0.0578 H         1 <0>         0.1333
     27 H6         -0.0360   -7.5155   -0.2340 H         1 <0>         0.1403
     28 H7          1.2452   -9.6374   -0.1264 H         1 <0>         0.1443
     29 H8          3.6932   -9.5682    0.0794 H         1 <0>         0.1657
     30 H9         -0.7987   -2.2406    0.1389 H         1 <0>         0.4023
     31 H10         0.0098   -3.7024   -0.0413 H         1 <0>         0.4328
     32 H11         4.5433   -0.2510   -0.0868 H         1 <0>         0.4196
@<TRIPOS>BOND
     1    1    6 ar
     2    1    2 ar
     3    1   23 1
     4    2    3 ar
     5    2   24 1
     6    3    4 ar
     7    3   25 1
     8    4   10 1
     9    4    5 ar
    10    5    6 ar
    11    5    7 1
    12    6   26 1
    13    7    8 2
    14    7   22 1
    15    8    9 1
    16    8   12 1
    17    9   10 am
    18    9   11 2
    19   10   32 1
    20   12   21 1
    21   12   13 2
    22   13   14 1
    23   14   15 ar
    24   14   20 ar
    25   15   16 ar
    26   15   27 1
    27   16   17 ar
    28   16   28 1
    29   17   18 ar
    30   17   29 1
    31   18   20 ar
    32   19   21 1
    33   20   21 1
    34   22   30 1
    35   22   31 1
@<TRIPOS>MOLECULE
CHEMBL204727__2
   31    34     0     0     0
SMALL
USER_CHARGES

@<TRIPOS>ATOM
      1 C1          0.3096    1.6205    0.0145 C.ar      1 <0>        -0.1616
      2 C2          1.5685    2.2034   -0.0205 C.ar      1 <0>        -0.0698
      3 C3          2.7044    1.4229   -0.0473 C.ar      1 <0>        -0.1709
      4 C4          2.5911    0.0363   -0.0388 C.ar      1 <0>         0.2093
      5 C5          1.3133   -0.5495   -0.0029 C.ar      1 <0>        -0.1303
      6 C6          0.1746    0.2605    0.0234 C.ar      1 <0>        -0.0575
      7 C7          1.2006   -2.0138    0.0060 C.2       1 <0>         0.2980
      8 C8          2.3783   -2.7648   -0.0220 C.2       1 <0>        -0.2132
      9 C9          3.6290   -2.1029   -0.0576 C.2       1 <0>         0.5561
     10 N1          3.7166   -0.7625   -0.0649 N.am      1 <0>        -0.6475
     11 O1          4.6516   -2.7655   -0.0819 O.2       1 <0>        -0.5070
     12 C10         2.3189   -4.2350   -0.0141 C.2       1 <0>         0.2787
     13 N2          3.4022   -5.0678    0.0820 N.2       1 <0>        -0.5408
     14 C11         2.9194   -6.3631    0.0537 C.ar      1 <0>        -0.0404
     15 C12         3.5112   -7.6162    0.1131 C.ar      1 <0>        -0.0523
     16 C13         2.6910   -8.7321    0.0556 C.ar      1 <0>        -0.2207
     17 C14         1.3210   -8.5654   -0.0582 C.ar      1 <0>         0.0725
     18 N3          0.7778   -7.3679   -0.1132 N.ar      1 <0>        -0.4776
     19 C15         1.5202   -6.2630   -0.0620 C.ar      1 <0>         0.2008
     20 N4          1.2176   -4.9488   -0.0925 N.2       1 <0>        -0.5903
     21 N5         -0.0274   -2.6272    0.0412 N.pl3     1 <0>        -0.8210
     22 H1         -0.5702    2.2464    0.0394 H         1 <0>         0.1251
     23 H2          1.6592    3.2796   -0.0272 H         1 <0>         0.1267
     24 H3          3.6794    1.8865   -0.0752 H         1 <0>         0.1314
     25 H4         -0.8081   -0.1865    0.0510 H         1 <0>         0.1270
     26 H5          4.5826   -7.7197    0.2015 H         1 <0>         0.1061
     27 H6          3.1170   -9.7236    0.0988 H         1 <0>         0.1115
     28 H7          0.6847   -9.4368   -0.1032 H         1 <0>         0.1331
     29 H8         -0.8324   -2.0957    0.1430 H         1 <0>         0.3848
     30 H9         -0.0899   -3.5922   -0.0357 H         1 <0>         0.4331
     31 H10         4.5921   -0.3457   -0.0899 H         1 <0>         0.4070
@<TRIPOS>BOND
     1    1    6 ar
     2    1    2 ar
     3    1   22 1
     4    2    3 ar
     5    2   23 1
     6    3    4 ar
     7    3   24 1
     8    4   10 1
     9    4    5 ar
    10    5    6 ar
    11    5    7 1
    12    6   25 1
    13    7    8 2
    14    7   21 1
    15    8    9 1
    16    8   12 1
    17    9   10 am
    18    9   11 2
    19   10   31 1
    20   12   20 2
    21   12   13 1
    22   13   14 1
    23   14   15 ar
    24   14   19 ar
    25   15   16 ar
    26   15   26 1
    27   16   17 ar
    28   16   27 1
    29   17   18 ar
    30   17   28 1
    31   18   19 ar
    32   19   20 1
    33   21   29 1
    34   21   30 1
@<TRIPOS>MOLECULE
CHEMBL417208
   68    72     0     0     0
SMALL
USER_CHARGES

@<TRIPOS>ATOM
      1 C1          0.3730    1.7986    0.1177 C.3       1 <0>         0.0249
      2 N1          0.2688    0.3333    0.1030 N.3       1 <0>        -0.5472
      3 C2         -1.1324   -0.0961    0.2128 C.3       1 <0>         0.0562
      4 C3         -1.2048   -1.6216    0.1139 C.3       1 <0>         0.0571
      5 N2         -0.3889   -2.2184    1.1806 N.3       1 <0>        -0.5407
      6 C4          1.0122   -1.7890    1.0707 C.3       1 <0>         0.0529
      7 C5          1.0847   -0.2634    1.1696 C.3       1 <0>         0.0559
      8 C6         -0.4932   -3.6836    1.1659 C.3       1 <0>         0.0621
      9 C7          0.1588   -4.2540    2.4270 C.3       1 <0>        -0.1303
     10 C8          0.0502   -5.7801    2.4117 C.3       1 <0>         0.1439
     11 N3          0.6745   -6.3262    3.6193 N.pl3     1 <0>        -0.7010
     12 C9          0.6985   -7.6923    3.8274 C.ar      1 <0>         0.5878
     13 N4          0.1515   -8.4877    2.9111 N.ar      1 <0>        -0.5917
     14 C10         0.1448   -9.7978    3.0555 C.ar      1 <0>         0.2501
     15 C11         0.7313  -10.3508    4.2064 C.ar      1 <0>        -0.3056
     16 C12         0.7571  -11.7408    4.4194 C.ar      1 <0>         0.0109
     17 C13         1.3520  -12.2140    5.5753 C.ar      1 <0>        -0.1259
     18 C14         1.9242  -11.2532    6.5189 C.ar      1 <0>         0.4606
     19 N5          1.8734   -9.9521    6.2710 N.ar      1 <0>        -0.5993
     20 C15         1.3056   -9.4743    5.1636 C.ar      1 <0>         0.4407
     21 N6          1.2674   -8.1558    4.9237 N.ar      1 <0>        -0.5828
     22 N7          2.5097  -11.6965    7.6539 N.2       1 <0>        -0.5818
     23 C16         2.8988  -10.8361    8.5747 C.2       1 <0>         0.5847
     24 N8          2.4296   -9.5479    8.5513 N.pl3     1 <0>        -0.6442
     25 C17         2.9609   -8.5942    9.4253 C.ar      1 <0>         0.1595
     26 C18         4.3039   -8.6435    9.7763 C.ar      1 <0>        -0.0872
     27 C19         4.8256   -7.6999   10.6392 C.ar      1 <0>        -0.1165
     28 C20         4.0125   -6.7067   11.1537 C.ar      1 <0>        -0.1452
     29 C21         2.6749   -6.6550   10.8066 C.ar      1 <0>        -0.1191
     30 C22         2.1482   -7.5922    9.9397 C.ar      1 <0>        -0.1504
     31 S1          4.0217  -11.3419    9.8348 S.3       1 <0>        -0.7488
     32 C23         1.4082  -13.6683    5.8532 C.ar      1 <0>         0.0159
     33 C24         0.3725  -14.2884    6.5529 C.ar      1 <0>        -0.0067
     34 C25         0.4308  -15.6446    6.8083 C.ar      1 <0>        -0.1094
     35 C26         1.5129  -16.3876    6.3720 C.ar      1 <0>        -0.0996
     36 C27         2.5431  -15.7789    5.6782 C.ar      1 <0>        -0.1080
     37 C28         2.4943  -14.4246    5.4113 C.ar      1 <0>        -0.0033
     38 Cl1         3.7846  -13.6638    4.5337 Cl        1 <0>        -0.0543
     39 Cl2        -0.9861  -13.3575    7.1018 Cl        1 <0>        -0.0585
     40 H1          1.4124    2.0904   -0.0326 H         1 <0>         0.0685
     41 H2         -0.2403    2.2145   -0.6816 H         1 <0>         0.0678
     42 H3          0.0243    2.1780    1.0782 H         1 <0>         0.0265
     43 H4         -1.5372    0.2258    1.1723 H         1 <0>         0.0429
     44 H5         -1.7134    0.3487   -0.5950 H         1 <0>         0.0789
     45 H6         -2.2401   -1.9444    0.2242 H         1 <0>         0.0806
     46 H7         -0.8252   -1.9416   -0.8565 H         1 <0>         0.0430
     47 H8          1.5933   -2.2338    1.8786 H         1 <0>         0.0841
     48 H9          1.4170   -2.1109    0.1112 H         1 <0>         0.0431
     49 H10         2.1199    0.0594    1.0594 H         1 <0>         0.0794
     50 H11         0.7050    0.0565    2.1400 H         1 <0>         0.0434
     51 H12        -1.5437   -3.9729    1.1374 H         1 <0>         0.0791
     52 H13         0.0155   -4.0753    0.2850 H         1 <0>         0.0393
     53 H14         1.2093   -3.9648    2.4555 H         1 <0>         0.0694
     54 H15        -0.3499   -3.8624    3.3079 H         1 <0>         0.0783
     55 H16        -1.0004   -6.0693    2.3832 H         1 <0>         0.0654
     56 H17         0.5589   -6.1717    1.5308 H         1 <0>         0.0635
     57 H18         1.0709   -5.7290    4.2728 H         1 <0>         0.4124
     58 H19        -0.3024  -10.4329    2.3052 H         1 <0>         0.1665
     59 H20         0.3240  -12.4203    3.7003 H         1 <0>         0.1348
     60 H21         1.7291   -9.2982    7.9286 H         1 <0>         0.4168
     61 H22         4.9394   -9.4191    9.3751 H         1 <0>         0.1523
     62 H23         5.8697   -7.7378   10.9129 H         1 <0>         0.1147
     63 H24         4.4229   -5.9699   11.8284 H         1 <0>         0.1103
     64 H25         2.0423   -5.8785   11.2107 H         1 <0>         0.1126
     65 H26         1.1046   -7.5485    9.6652 H         1 <0>         0.1101
     66 H27        -0.3700  -16.1258    7.3501 H         1 <0>         0.1361
     67 H28         1.5537  -17.4478    6.5742 H         1 <0>         0.1377
     68 H29         3.3855  -16.3645    5.3409 H         1 <0>         0.1368
@<TRIPOS>BOND
     1    1    2 1
     2    1   40 1
     3    1   41 1
     4    1   42 1
     5    2    7 1
     6    2    3 1
     7    3    4 1
     8    3   43 1
     9    3   44 1
    10    4    5 1
    11    4   45 1
    12    4   46 1
    13    5    6 1
    14    5    8 1
    15    6    7 1
    16    6   47 1
    17    6   48 1
    18    7   49 1
    19    7   50 1
    20    8    9 1
    21    8   51 1
    22    8   52 1
    23    9   10 1
    24    9   53 1
    25    9   54 1
    26   10   11 1
    27   10   55 1
    28   10   56 1
    29   11   12 1
    30   11   57 1
    31   12   21 ar
    32   12   13 ar
    33   13   14 ar
    34   14   15 ar
    35   14   58 1
    36   15   20 ar
    37   15   16 ar
    38   16   17 ar
    39   16   59 1
    40   17   18 ar
    41   17   32 1
    42   18   19 ar
    43   18   22 1
    44   19   20 ar
    45   20   21 ar
    46   22   23 2
    47   23   24 1
    48   23   31 1
    49   24   25 1
    50   24   60 1
    51   25   30 ar
    52   25   26 ar
    53   26   27 ar
    54   26   61 1
    55   27   28 ar
    56   27   62 1
    57   28   29 ar
    58   28   63 1
    59   29   30 ar
    60   29   64 1
    61   30   65 1
    62   32   37 ar
    63   32   33 ar
    64   33   34 ar
    65   33   39 1
    66   34   35 ar
    67   34   66 1
    68   35   36 ar
    69   35   67 1
    70   36   37 ar
    71   36   68 1
    72   37   38 1
@<TRIPOS>MOLECULE
CHEMBL417208__1
   68    72     0     0     0
SMALL
USER_CHARGES

@<TRIPOS>ATOM
      1 C1         -0.0178    1.4648    0.0101 C.3       1 <0>         0.0249
      2 N1          0.0021   -0.0041    0.0020 N.3       1 <0>        -0.5472
      3 C2         -1.3604   -0.5488   -0.0788 C.3       1 <0>         0.0561
      4 C3         -1.2923   -2.0754   -0.1650 C.3       1 <0>         0.0573
      5 N2         -0.5880   -2.5990    1.0137 N.3       1 <0>        -0.5407
      6 C4          0.7745   -2.0543    1.0946 C.3       1 <0>         0.0529
      7 C5          0.7064   -0.5277    1.1807 C.3       1 <0>         0.0557
      8 C6         -0.5680   -4.0678    1.0056 C.3       1 <0>         0.0625
      9 C7         -0.0549   -4.5783    2.3536 C.3       1 <0>        -0.1310
     10 C8         -0.0341   -6.1082    2.3452 C.3       1 <0>         0.1441
     11 N3          0.4572   -6.5970    3.6359 N.pl3     1 <0>        -0.6997
     12 C9          0.5643   -7.9557    3.8649 C.ar      1 <0>         0.5785
     13 N4          0.2186   -8.7961    2.8920 N.ar      1 <0>        -0.5796
     14 C10         0.2992  -10.1017    3.0517 C.ar      1 <0>         0.2491
     15 C11         0.7621  -10.5992    4.2818 C.ar      1 <0>        -0.3017
     16 C12         0.8768  -11.9773    4.5291 C.ar      1 <0>         0.0303
     17 C13         1.3429  -12.3778    5.7710 C.ar      1 <0>        -0.1706
     18 C14         1.6820  -11.4017    6.7327 C.ar      1 <0>         0.4601
     19 N5          1.5656  -10.1144    6.4767 N.ar      1 <0>        -0.3961
     20 C15         1.1221   -9.6751    5.2974 C.ar      1 <0>         0.4145
     21 N6          1.0099   -8.3665    5.0369 N.ar      1 <0>        -0.5437
     22 N7          2.1473  -11.8064    7.9738 N.pl3     1 <0>        -0.6153
     23 C16         2.4824  -10.8674    8.9228 C.2       1 <0>         0.5224
     24 N8          2.9233  -11.2509   10.0991 N.2       1 <0>        -0.6367
     25 C17         3.2567  -10.3169   11.0432 C.ar      1 <0>         0.1685
     26 C18         4.0123   -9.1980   10.6866 C.ar      1 <0>        -0.0952
     27 C19         4.3442   -8.2607   11.6427 C.ar      1 <0>        -0.1272
     28 C20         3.9301   -8.4271   12.9524 C.ar      1 <0>        -0.1577
     29 C21         3.1815   -9.5336   13.3127 C.ar      1 <0>        -0.1300
     30 C22         2.8376  -10.4758   12.3657 C.ar      1 <0>        -0.1401
     31 S1          2.3198   -9.1509    8.5597 S.3       1 <0>        -0.7566
     32 C23         1.4836  -13.8194    6.0872 C.ar      1 <0>        -0.0239
     33 C24         0.4170  -14.5204    6.6497 C.ar      1 <0>        -0.0127
     34 C25         0.5543  -15.8635    6.9416 C.ar      1 <0>        -0.1077
     35 C26         1.7465  -16.5132    6.6776 C.ar      1 <0>        -0.0928
     36 C27         2.8080  -15.8237    6.1199 C.ar      1 <0>        -0.1077
     37 C28         2.6814  -14.4817    5.8181 C.ar      1 <0>        -0.0128
     38 Cl1         4.0123  -13.6197    5.1115 Cl        1 <0>        -0.0448
     39 Cl2        -1.0798  -13.7065    6.9828 Cl        1 <0>        -0.0445
     40 H1          1.0047    1.8421    0.0024 H         1 <0>         0.0684
     41 H2         -0.5450    1.8259   -0.8730 H         1 <0>         0.0675
     42 H3         -0.5280    1.8163    0.9069 H         1 <0>         0.0264
     43 H4         -1.9211   -0.2594    0.8100 H         1 <0>         0.0430
     44 H5         -1.8569   -0.1563   -0.9662 H         1 <0>         0.0785
     45 H6         -2.3026   -2.4833   -0.1958 H         1 <0>         0.0804
     46 H7         -0.7551   -2.3650   -1.0681 H         1 <0>         0.0427
     47 H8          1.2710   -2.4468    1.9820 H         1 <0>         0.0848
     48 H9          1.3352   -2.3437    0.2058 H         1 <0>         0.0430
     49 H10         1.7168   -0.1198    1.2116 H         1 <0>         0.0794
     50 H11         0.1692   -0.2380    2.0838 H         1 <0>         0.0437
     51 H12        -1.5767   -4.4440    0.8348 H         1 <0>         0.0788
     52 H13         0.0899   -4.4179    0.2102 H         1 <0>         0.0390
     53 H14         0.9538   -4.2022    2.5244 H         1 <0>         0.0699
     54 H15        -0.7128   -4.2283    3.1490 H         1 <0>         0.0789
     55 H16        -1.0428   -6.4843    2.1743 H         1 <0>         0.0648
     56 H17         0.6238   -6.4583    1.5497 H         1 <0>         0.0630
     57 H18         0.7074   -5.9670    4.3297 H         1 <0>         0.4148
     58 H19         0.0157  -10.7741    2.2555 H         1 <0>         0.1673
     59 H20         0.6097  -12.7023    3.7746 H         1 <0>         0.1376
     60 H21         4.3365   -9.0670    9.6648 H         1 <0>         0.1335
     61 H22         4.9288   -7.3950   11.3684 H         1 <0>         0.1029
     62 H23         4.1927   -7.6902   13.6969 H         1 <0>         0.1012
     63 H24         2.8621   -9.6577   14.3369 H         1 <0>         0.1040
     64 H25         2.2495  -11.3367   12.6473 H         1 <0>         0.1053
     65 H26        -0.2708  -16.4074    7.3771 H         1 <0>         0.1409
     66 H27         1.8492  -17.5633    6.9083 H         1 <0>         0.1418
     67 H28         3.7363  -16.3366    5.9161 H         1 <0>         0.1409
     68 H29         2.2368  -12.7513    8.1737 H         1 <0>         0.3966
@<TRIPOS>BOND
     1    1    2 1
     2    1   40 1
     3    1   41 1
     4    1   42 1
     5    2    7 1
     6    2    3 1
     7    3    4 1
     8    3   43 1
     9    3   44 1
    10    4    5 1
    11    4   45 1
    12    4   46 1
    13    5    6 1
    14    5    8 1
    15    6    7 1
    16    6   47 1
    17    6   48 1
    18    7   49 1
    19    7   50 1
    20    8    9 1
    21    8   51 1
    22    8   52 1
    23    9   10 1
    24    9   53 1
    25    9   54 1
    26   10   11 1
    27   10   55 1
    28   10   56 1
    29   11   12 1
    30   11   57 1
    31   12   21 ar
    32   12   13 ar
    33   13   14 ar
    34   14   15 ar
    35   14   58 1
    36   15   20 ar
    37   15   16 ar
    38   16   17 ar
    39   16   59 1
    40   17   18 ar
    41   17   32 1
    42   18   19 ar
    43   18   22 1
    44   19   20 ar
    45   20   21 ar
    46   22   23 1
    47   22   68 1
    48   23   24 2
    49   23   31 1
    50   24   25 1
    51   25   30 ar
    52   25   26 ar
    53   26   27 ar
    54   26   60 1
    55   27   28 ar
    56   27   61 1
    57   28   29 ar
    58   28   62 1
    59   29   30 ar
    60   29   63 1
    61   30   64 1
    62   32   37 ar
    63   32   33 ar
    64   33   34 ar
    65   33   39 1
    66   34   35 ar
    67   34   65 1
    68   35   36 ar
    69   35   66 1
    70   36   37 ar
    71   36   67 1
    72   37   38 1
@<TRIPOS>MOLECULE
CHEMBL147112
   51    54     0     0     0
SMALL
USER_CHARGES

@<TRIPOS>ATOM
      1 C1         -1.1183    0.9642   -0.0829 C.3       1 <0>        -0.0897
      2 C2         -0.2111   -0.2372   -0.0149 C.2       1 <0>        -0.0857
      3 C3          0.2941   -0.9581   -1.0985 C.2       1 <0>        -0.1585
      4 C4          1.0669   -1.9603   -0.6105 C.2       1 <0>         0.0382
      5 N1          1.0671   -1.8971    0.7450 N.pl3     1 <0>        -0.5146
      6 H1          1.5418   -2.4989    1.3396 H         1 <0>         0.4167
      7 C5          0.2844   -0.8318    1.1355 C.2       1 <0>        -0.0348
      8 C6          0.0315   -0.4237    2.4613 C.2       1 <0>         0.1026
      9 C7         -0.0500   -1.3648    3.4705 C.2       1 <0>        -0.2291
     10 C8         -0.1644   -1.1169    4.9243 C.ar      1 <0>        -0.0800
     11 C9         -0.2228    0.0450    5.6902 C.ar      1 <0>        -0.0723
     12 C10        -0.3312   -0.0410    7.0603 C.ar      1 <0>        -0.1075
     13 C11        -0.3824   -1.2919    7.6791 C.ar      1 <0>        -0.0127
     14 C12        -0.3239   -2.4559    6.9185 C.ar      1 <0>        -0.1239
     15 C13        -0.2151   -2.3778    5.5369 C.ar      1 <0>         0.1350
     16 N2         -0.1396   -3.3629    4.5592 N.am      1 <0>        -0.6538
     17 C14        -0.0480   -2.8268    3.3305 C.2       1 <0>         0.5559
     18 O1          0.0271   -3.4454    2.2837 O.2       1 <0>        -0.5128
     19 C15        -0.4991   -1.3804    9.1543 C.ar      1 <0>        -0.0774
     20 C16        -1.4684   -2.1981    9.7320 C.ar      1 <0>        -0.0680
     21 C17        -1.5726   -2.2773   11.1058 C.ar      1 <0>        -0.1568
     22 C18        -0.7176   -1.5473   11.9129 C.ar      1 <0>        -0.0782
     23 C19         0.2469   -0.7328   11.3506 C.ar      1 <0>        -0.2094
     24 C20         0.3667   -0.6481    9.9727 C.ar      1 <0>         0.1418
     25 O2          1.3184    0.1475    9.4188 O.3       1 <0>        -0.3057
     26 C21         2.1668    0.8657   10.3169 C.3       1 <0>         0.0250
     27 C22         0.0277   -0.6729   -2.5541 C.3       1 <0>        -0.0256
     28 C23         1.0122    0.3859   -3.0548 C.3       1 <0>        -0.1721
     29 C24         0.7458    0.6710   -4.5104 C.2       1 <0>         0.4879
     30 O3         -0.1485    0.0820   -5.0933 O.co2     1 <0>        -0.7000
     31 O4          1.4246    1.4908   -5.1052 O.co2     1 <0>        -0.7100
     32 H2         -0.5164    1.8716   -0.1330 H         1 <0>         0.0696
     33 H3         -1.7465    0.8953   -0.9710 H         1 <0>         0.0732
     34 H4         -1.7482    0.9946    0.8061 H         1 <0>         0.0575
     35 H5          1.5961   -2.6906   -1.2046 H         1 <0>         0.1667
     36 H6         -0.0985    0.6241    2.6883 H         1 <0>         0.1497
     37 H7         -0.1828    1.0118    5.2104 H         1 <0>         0.1296
     38 H8         -0.3764    0.8587    7.6561 H         1 <0>         0.1280
     39 H9         -0.3636   -3.4202    7.4032 H         1 <0>         0.1247
     40 H10        -0.1553   -4.3157    4.7405 H         1 <0>         0.4139
     41 H11        -2.1375   -2.7689    9.1053 H         1 <0>         0.1315
     42 H12        -2.3243   -2.9110   11.5527 H         1 <0>         0.1258
     43 H13        -0.8049   -1.6141   12.9873 H         1 <0>         0.1247
     44 H14         0.9109   -0.1653   11.9857 H         1 <0>         0.1295
     45 H15         1.5616    1.5237   10.9405 H         1 <0>         0.0558
     46 H16         2.7062    0.1606   10.9493 H         1 <0>         0.0548
     47 H17         2.8796    1.4606    9.7459 H         1 <0>         0.1018
     48 H18         0.1532   -1.5882   -3.1325 H         1 <0>         0.0636
     49 H19        -0.9918   -0.3057   -2.6717 H         1 <0>         0.0669
     50 H20         0.8867    1.3012   -2.4764 H         1 <0>         0.0552
     51 H21         2.0317    0.0186   -2.9372 H         1 <0>         0.0530
@<TRIPOS>BOND
     1    1    2 1
     2    1   32 1
     3    1   33 1
     4    1   34 1
     5    2    7 2
     6    2    3 1
     7    3    4 2
     8    3   27 1
     9    4    5 1
    10    4   35 1
    11    5    6 1
    12    5    7 1
    13    7    8 1
    14    8    9 2
    15    8   36 1
    16    9   17 1
    17    9   10 1
    18   10   15 ar
    19   10   11 ar
    20   11   12 ar
    21   11   37 1
    22   12   13 ar
    23   12   38 1
    24   13   14 ar
    25   13   19 1
    26   14   15 ar
    27   14   39 1
    28   15   16 1
    29   16   17 am
    30   16   40 1
    31   17   18 2
    32   19   24 ar
    33   19   20 ar
    34   20   21 ar
    35   20   41 1
    36   21   22 ar
    37   21   42 1
    38   22   23 ar
    39   22   43 1
    40   23   24 ar
    41   23   44 1
    42   24   25 1
    43   25   26 1
    44   26   45 1
    45   26   46 1
    46   26   47 1
    47   27   28 1
    48   27   48 1
    49   27   49 1
    50   28   29 1
    51   28   50 1
    52   28   51 1
    53   29   30 2
    54   29   31 1
@<TRIPOS>MOLECULE
CHEMBL190866
   82    85     0     0     0
SMALL
USER_CHARGES

@<TRIPOS>ATOM
      1 C1         -2.4640   -0.4673   -1.0983 C.3       1 <0>        -0.1752
      2 C2         -1.1522   -0.9327   -0.5207 C.2       1 <0>         0.5308
      3 O1         -1.1237   -1.4618    0.5702 O.2       1 <0>        -0.5264
      4 N1         -0.0107   -0.7610   -1.2164 N.am      1 <0>        -0.5637
      5 C3          1.2473   -1.3131   -0.7077 C.3       1 <0>         0.1211
      6 C4          1.4349   -2.7335   -1.2444 C.3       1 <0>        -0.1316
      7 C5          2.7487   -3.3101   -0.7131 C.3       1 <0>         0.0658
      8 O2          2.9240   -4.6367   -1.2144 O.3       1 <0>        -0.3794
      9 C6          4.1277   -5.2696   -0.7756 C.3       1 <0>         0.1032
     10 C7          4.2087   -6.6558   -1.3612 C.ar      1 <0>        -0.0920
     11 C8          3.6636   -7.7274   -0.6788 C.ar      1 <0>        -0.0983
     12 C9          3.7379   -8.9989   -1.2160 C.ar      1 <0>        -0.1232
     13 C10         4.3568   -9.1988   -2.4357 C.ar      1 <0>        -0.1139
     14 C11         4.9011   -8.1272   -3.1185 C.ar      1 <0>        -0.1237
     15 C12         4.8230   -6.8550   -2.5834 C.ar      1 <0>        -0.0989
     16 C13        -0.0271   -0.0580   -2.4201 C.ar      1 <0>         0.3416
     17 C14         0.2739    1.2887   -2.4173 C.ar      1 <0>        -0.1315
     18 C15         0.2543    1.9868   -3.6356 C.ar      1 <0>         0.2051
     19 C16        -0.0767    1.2636   -4.8127 C.ar      1 <0>        -0.1924
     20 C17        -0.1044    1.9378   -6.0465 C.ar      1 <0>         0.0132
     21 C18         0.1956    3.2895   -6.0557 C.ar      1 <0>        -0.1300
     22 C19         0.5156    3.9410   -4.8445 C.ar      1 <0>         0.4453
     23 N2          0.5357    3.2907   -3.7002 N.ar      1 <0>        -0.4672
     24 N3          0.8154    5.2965   -4.8609 N.am      1 <0>        -0.6652
     25 C20         1.1228    5.9326   -3.7132 C.2       1 <0>         0.6939
     26 O3          1.1375    5.3194   -2.6635 O.2       1 <0>        -0.5134
     27 N4          1.4139    7.2485   -3.7291 N.am      1 <0>        -0.7347
     28 C21         1.7480    7.9399   -2.4815 C.3       1 <0>         0.1875
     29 C22         2.9868    7.2949   -1.8569 C.3       1 <0>        -0.1659
     30 C23         2.0341    9.4138   -2.7761 C.3       1 <0>        -0.1561
     31 C24         0.5720    7.8332   -1.5086 C.3       1 <0>        -0.1659
     32 C25         0.1814    4.0481   -7.3296 C.ar      1 <0>         0.0317
     33 C26        -0.5147    5.2520   -7.4177 C.ar      1 <0>        -0.1964
     34 C27        -0.5255    5.9585   -8.6094 C.ar      1 <0>         0.1778
     35 C28         0.1557    5.4687   -9.7142 C.ar      1 <0>        -0.2940
     36 C29         0.8493    4.2703   -9.6300 C.ar      1 <0>         0.1776
     37 C30         0.8690    3.5616   -8.4397 C.ar      1 <0>        -0.1707
     38 O4          1.5146    3.7935  -10.7149 O.3       1 <0>        -0.3095
     39 C31         1.4567    4.5780  -11.9079 C.3       1 <0>         0.0247
     40 O5         -1.2045    7.1325   -8.6963 O.3       1 <0>        -0.3103
     41 C32        -1.1734    7.8084   -9.9550 C.3       1 <0>         0.0245
     42 C33        -0.3676   -0.1043   -4.7122 C.ar      1 <0>         0.1901
     43 N5         -0.3274   -0.7031   -3.5442 N.ar      1 <0>        -0.4943
     44 H1         -2.6906    0.5320   -0.7265 H         1 <0>         0.0958
     45 H2         -2.3939   -0.4430   -2.1858 H         1 <0>         0.0801
     46 H3         -3.2562   -1.1541   -0.8005 H         1 <0>         0.0988
     47 H4          2.0776   -0.6879   -1.0361 H         1 <0>         0.0808
     48 H5          1.2193   -1.3370    0.3817 H         1 <0>         0.0967
     49 H6          0.6046   -3.3586   -0.9159 H         1 <0>         0.0770
     50 H7          1.4629   -2.7095   -2.3338 H         1 <0>         0.0777
     51 H8          3.5790   -2.6849   -1.0416 H         1 <0>         0.0499
     52 H9          2.7208   -3.3340    0.3763 H         1 <0>         0.0528
     53 H10         4.9866   -4.6851   -1.1053 H         1 <0>         0.0579
     54 H11         4.1283   -5.3343    0.3125 H         1 <0>         0.0587
     55 H12         3.1800   -7.5711    0.2742 H         1 <0>         0.1230
     56 H13         3.3126   -9.8362   -0.6825 H         1 <0>         0.1241
     57 H14         4.4155  -10.1924   -2.8551 H         1 <0>         0.1231
     58 H15         5.3850   -8.2835   -4.0713 H         1 <0>         0.1238
     59 H16         5.2450   -6.0172   -3.1186 H         1 <0>         0.1222
     60 H17         0.5195    1.7960   -1.4960 H         1 <0>         0.1517
     61 H18        -0.3519    1.4168   -6.9595 H         1 <0>         0.1576
     62 H19         0.8036    5.7857   -5.6985 H         1 <0>         0.4165
     63 H20         1.4021    7.7377   -4.5666 H         1 <0>         0.3949
     64 H21         3.8246    7.3709   -2.5501 H         1 <0>         0.0527
     65 H22         3.2354    7.8093   -0.9287 H         1 <0>         0.0644
     66 H23         2.7830    6.2448   -1.6471 H         1 <0>         0.0810
     67 H24         1.1515    9.8733   -3.2211 H         1 <0>         0.0627
     68 H25         2.2827    9.9282   -1.8479 H         1 <0>         0.0769
     69 H26         2.8718    9.4898   -3.4693 H         1 <0>         0.0622
     70 H27         0.3682    6.7832   -1.2987 H         1 <0>         0.0810
     71 H28         0.8207    8.3477   -0.5803 H         1 <0>         0.0643
     72 H29        -0.3105    8.2927   -1.9535 H         1 <0>         0.0533
     73 H30        -1.0455    5.6337   -6.5581 H         1 <0>         0.1360
     74 H31         0.1457    6.0215  -10.6420 H         1 <0>         0.1388
     75 H32         1.4129    2.6310   -8.3735 H         1 <0>         0.1393
     76 H33         2.0278    4.0854  -12.6948 H         1 <0>         0.1055
     77 H34         0.4187    4.6830  -12.2237 H         1 <0>         0.0577
     78 H35         1.8793    5.5641  -11.7152 H         1 <0>         0.0572
     79 H36        -1.7532    8.7289   -9.8875 H         1 <0>         0.1054
     80 H37        -0.1418    8.0469  -10.2139 H         1 <0>         0.0576
     81 H38        -1.6015    7.1649  -10.7236 H         1 <0>         0.0578
     82 H39        -0.6213   -0.6676   -5.5980 H         1 <0>         0.1735
@<TRIPOS>BOND
     1    1    2 1
     2    1   44 1
     3    1   45 1
     4    1   46 1
     5    2    3 2
     6    2    4 am
     7    4    5 1
     8    4   16 1
     9    5    6 1
    10    5   47 1
    11    5   48 1
    12    6    7 1
    13    6   49 1
    14    6   50 1
    15    7    8 1
    16    7   51 1
    17    7   52 1
    18    8    9 1
    19    9   10 1
    20    9   53 1
    21    9   54 1
    22   10   15 ar
    23   10   11 ar
    24   11   12 ar
    25   11   55 1
    26   12   13 ar
    27   12   56 1
    28   13   14 ar
    29   13   57 1
    30   14   15 ar
    31   14   58 1
    32   15   59 1
    33   16   43 ar
    34   16   17 ar
    35   17   18 ar
    36   17   60 1
    37   18   23 ar
    38   18   19 ar
    39   19   20 ar
    40   19   42 ar
    41   20   21 ar
    42   20   61 1
    43   21   22 ar
    44   21   32 1
    45   22   23 ar
    46   22   24 1
    47   24   25 am
    48   24   62 1
    49   25   26 2
    50   25   27 am
    51   27   28 1
    52   27   63 1
    53   28   29 1
    54   28   30 1
    55   28   31 1
    56   29   64 1
    57   29   65 1
    58   29   66 1
    59   30   67 1
    60   30   68 1
    61   30   69 1
    62   31   70 1
    63   31   71 1
    64   31   72 1
    65   32   37 ar
    66   32   33 ar
    67   33   34 ar
    68   33   73 1
    69   34   35 ar
    70   34   40 1
    71   35   36 ar
    72   35   74 1
    73   36   37 ar
    74   36   38 1
    75   37   75 1
    76   38   39 1
    77   39   76 1
    78   39   77 1
    79   39   78 1
    80   40   41 1
    81   41   79 1
    82   41   80 1
    83   41   81 1
    84   42   43 ar
    85   42   82 1
@<TRIPOS>MOLECULE
CHEMBL187396
   79    82     0     0     0
SMALL
USER_CHARGES

@<TRIPOS>ATOM
      1 C1         -0.0187    1.5258    0.0104 C.3       1 <0>        -0.1656
      2 C2          0.0021   -0.0041    0.0020 C.3       1 <0>         0.1879
      3 C3          0.7421   -0.5109    1.2415 C.3       1 <0>        -0.1656
      4 C4         -1.4333   -0.5336    0.0129 C.3       1 <0>        -0.1558
      5 N1          0.6878   -0.4765   -1.2033 N.am      1 <0>        -0.7366
      6 C5          1.9715   -0.1323   -1.4270 C.2       1 <0>         0.6936
      7 O1          2.5604    0.5703   -0.6286 O.2       1 <0>        -0.5134
      8 N2          2.6023   -0.5669   -2.5359 N.am      1 <0>        -0.6664
      9 C6          3.9247   -0.2123   -2.7663 C.ar      1 <0>         0.4500
     10 C7          4.5693   -0.6712   -3.9356 C.ar      1 <0>        -0.1612
     11 C8          5.8881   -0.3212   -4.1717 C.ar      1 <0>         0.0290
     12 C9          6.5368    0.4880   -3.2221 C.ar      1 <0>        -0.2401
     13 C10         7.8708    0.8895   -3.3824 C.ar      1 <0>         0.2196
     14 N3          8.4455    1.6459   -2.4759 N.ar      1 <0>        -0.5397
     15 C11         7.8088    2.0618   -1.3834 C.ar      1 <0>         0.4094
     16 C12         6.4944    1.7182   -1.1375 C.ar      1 <0>        -0.2403
     17 C13         5.8226    0.9111   -2.0693 C.ar      1 <0>         0.2386
     18 N4          4.5491    0.5491   -1.8926 N.ar      1 <0>        -0.4808
     19 N5          8.4837    2.8609   -0.4679 N.pl3     1 <0>        -0.7213
     20 C14         7.7998    3.3283    0.7404 C.3       1 <0>         0.1268
     21 C15         8.7592    4.1828    1.5712 C.3       1 <0>        -0.1288
     22 C16         8.0449    4.6711    2.8331 C.3       1 <0>        -0.1131
     23 C17         9.0043    5.5256    3.6639 C.3       1 <0>         0.0559
     24 N6          8.3185    5.9943    4.8755 N.3       1 <0>        -0.5380
     25 C18         7.2326    6.9264    4.5390 C.3       1 <0>         0.0138
     26 C19         6.5084    7.3424    5.8221 C.3       1 <0>         0.0623
     27 O2          7.4517    7.9157    6.7314 O.3       1 <0>        -0.3859
     28 C20         8.5228    7.0349    7.0813 C.3       1 <0>         0.0628
     29 C21         9.2673    6.6158    5.8109 C.3       1 <0>         0.0170
     30 C22         3.8387   -1.5231   -4.9046 C.ar      1 <0>         0.0421
     31 C23         3.1397   -2.6438   -4.4607 C.ar      1 <0>        -0.1989
     32 C24         2.4582   -3.4378   -5.3688 C.ar      1 <0>         0.1767
     33 C25         2.4715   -3.1183   -6.7187 C.ar      1 <0>        -0.2977
     34 C26         3.1664   -2.0032   -7.1640 C.ar      1 <0>         0.1765
     35 C27         3.8449   -1.2016   -6.2604 C.ar      1 <0>        -0.1741
     36 O3          3.1769   -1.6937   -8.4872 O.3       1 <0>        -0.3104
     37 C28         2.4514   -2.5601   -9.3619 C.3       1 <0>         0.0252
     38 O4          1.7762   -4.5310   -4.9368 O.3       1 <0>        -0.3111
     39 C29         1.0960   -5.3046   -5.9272 C.3       1 <0>         0.0251
     40 H1          1.0039    1.9031    0.0027 H         1 <0>         0.0813
     41 H2         -0.5459    1.8868   -0.8726 H         1 <0>         0.0523
     42 H3         -0.5289    1.8773    0.9072 H         1 <0>         0.0634
     43 H4          0.2319   -0.1594    2.1383 H         1 <0>         0.0633
     44 H5          0.7568   -1.6008    1.2356 H         1 <0>         0.0528
     45 H6          1.7647   -0.1336    1.2338 H         1 <0>         0.0814
     46 H7         -1.9605   -0.1726   -0.8702 H         1 <0>         0.0619
     47 H8         -1.4185   -1.6235    0.0069 H         1 <0>         0.0624
     48 H9         -1.9435   -0.1821    0.9097 H         1 <0>         0.0762
     49 H10         0.2179   -1.0371   -1.8404 H         1 <0>         0.3941
     50 H11         2.1325   -1.1275   -3.1729 H         1 <0>         0.4148
     51 H12         6.4032   -0.6599   -5.0584 H         1 <0>         0.1507
     52 H13         8.4269    0.5757   -4.2534 H         1 <0>         0.1686
     53 H14         5.9925    2.0642   -0.2459 H         1 <0>         0.1418
     54 H15         9.4075    3.1089   -0.6290 H         1 <0>         0.4054
     55 H16         6.9323    3.9254    0.4590 H         1 <0>         0.0665
     56 H17         7.4748    2.4704    1.3290 H         1 <0>         0.0680
     57 H18         9.6266    3.5858    1.8527 H         1 <0>         0.0724
     58 H19         9.0841    5.0408    0.9827 H         1 <0>         0.0698
     59 H20         7.1775    5.2681    2.5517 H         1 <0>         0.0671
     60 H21         7.7200    3.8131    3.4217 H         1 <0>         0.0770
     61 H22         9.8718    4.9285    3.9454 H         1 <0>         0.0773
     62 H23         9.3293    6.3835    3.0754 H         1 <0>         0.0361
     63 H24         7.6481    7.8091    4.0530 H         1 <0>         0.0430
     64 H25         6.5285    6.4371    3.8660 H         1 <0>         0.0899
     65 H26         5.7394    8.0772    5.5841 H         1 <0>         0.0987
     66 H27         6.0473    6.4672    6.2799 H         1 <0>         0.0608
     67 H28         9.2105    7.5474    7.7539 H         1 <0>         0.0987
     68 H29         8.1202    6.1508    7.5756 H         1 <0>         0.0606
     69 H30        10.0485    5.8998    6.0663 H         1 <0>         0.0868
     70 H31         9.7154    7.4936    5.3452 H         1 <0>         0.0431
     71 H32         3.1296   -2.8935   -3.4101 H         1 <0>         0.1349
     72 H33         1.9400   -3.7392   -7.4246 H         1 <0>         0.1372
     73 H34         4.3820   -0.3311   -6.6071 H         1 <0>         0.1379
     74 H35         2.5417   -2.2003  -10.3868 H         1 <0>         0.1045
     75 H36         2.8585   -3.5690   -9.2938 H         1 <0>         0.0570
     76 H37         1.4007   -2.5720   -9.0723 H         1 <0>         0.0566
     77 H38         0.3590   -4.6805   -6.4327 H         1 <0>         0.0570
     78 H39         1.8166   -5.6777   -6.6549 H         1 <0>         0.0571
     79 H40         0.5935   -6.1456   -5.4494 H         1 <0>         0.1044
@<TRIPOS>BOND
     1    1    2 1
     2    1   40 1
     3    1   41 1
     4    1   42 1
     5    2    3 1
     6    2    4 1
     7    2    5 1
     8    3   43 1
     9    3   44 1
    10    3   45 1
    11    4   46 1
    12    4   47 1
    13    4   48 1
    14    5    6 am
    15    5   49 1
    16    6    7 2
    17    6    8 am
    18    8    9 1
    19    8   50 1
    20    9   18 ar
    21    9   10 ar
    22   10   11 ar
    23   10   30 1
    24   11   12 ar
    25   11   51 1
    26   12   17 ar
    27   12   13 ar
    28   13   14 ar
    29   13   52 1
    30   14   15 ar
    31   15   16 ar
    32   15   19 1
    33   16   17 ar
    34   16   53 1
    35   17   18 ar
    36   19   20 1
    37   19   54 1
    38   20   21 1
    39   20   55 1
    40   20   56 1
    41   21   22 1
    42   21   57 1
    43   21   58 1
    44   22   23 1
    45   22   59 1
    46   22   60 1
    47   23   24 1
    48   23   61 1
    49   23   62 1
    50   24   29 1
    51   24   25 1
    52   25   26 1
    53   25   63 1
    54   25   64 1
    55   26   27 1
    56   26   65 1
    57   26   66 1
    58   27   28 1
    59   28   29 1
    60   28   67 1
    61   28   68 1
    62   29   69 1
    63   29   70 1
    64   30   35 ar
    65   30   31 ar
    66   31   32 ar
    67   31   71 1
    68   32   33 ar
    69   32   38 1
    70   33   34 ar
    71   33   72 1
    72   34   35 ar
    73   34   36 1
    74   35   73 1
    75   36   37 1
    76   37   74 1
    77   37   75 1
    78   37   76 1
    79   38   39 1
    80   39   77 1
    81   39   78 1
    82   39   79 1
@<TRIPOS>MOLECULE
CHEMBL187396__1
   80    83     0     0     0
SMALL
USER_CHARGES

@<TRIPOS>ATOM
      1 C1         -0.0187    1.5258    0.0104 C.3       1 <0>        -0.1648
      2 C2          0.0021   -0.0041    0.0020 C.3       1 <0>         0.1877
      3 C3          0.7421   -0.5109    1.2415 C.3       1 <0>        -0.1648
      4 C4         -1.4333   -0.5336    0.0129 C.3       1 <0>        -0.1575
      5 N1          0.6878   -0.4765   -1.2033 N.am      1 <0>        -0.7354
      6 C5          1.9715   -0.1323   -1.4270 C.2       1 <0>         0.6964
      7 O1          2.5604    0.5703   -0.6286 O.2       1 <0>        -0.5191
      8 N2          2.6023   -0.5669   -2.5359 N.am      1 <0>        -0.6655
      9 C6          3.9247   -0.2123   -2.7663 C.ar      1 <0>         0.4538
     10 C7          4.5693   -0.6712   -3.9356 C.ar      1 <0>        -0.1520
     11 C8          5.8881   -0.3212   -4.1717 C.ar      1 <0>         0.0269
     12 C9          6.5368    0.4880   -3.2221 C.ar      1 <0>        -0.2358
     13 C10         7.8708    0.8895   -3.3824 C.ar      1 <0>         0.2236
     14 N3          8.4455    1.6459   -2.4759 N.ar      1 <0>        -0.5406
     15 C11         7.8088    2.0618   -1.3834 C.ar      1 <0>         0.4043
     16 C12         6.4944    1.7182   -1.1375 C.ar      1 <0>        -0.2382
     17 C13         5.8226    0.9111   -2.0693 C.ar      1 <0>         0.2369
     18 N4          4.5491    0.5491   -1.8926 N.ar      1 <0>        -0.4835
     19 N5          8.4837    2.8609   -0.4679 N.pl3     1 <0>        -0.7278
     20 C14         7.7998    3.3283    0.7404 C.3       1 <0>         0.1287
     21 C15         8.7592    4.1828    1.5712 C.3       1 <0>        -0.1287
     22 C16         8.0449    4.6711    2.8331 C.3       1 <0>        -0.1464
     23 C17         9.0043    5.5256    3.6639 C.3       1 <0>        -0.0086
     24 N6          8.3185    5.9943    4.8755 N.4       1 <0>        -0.3859
     25 C18         7.2218    6.8971    4.4995 C.3       1 <0>        -0.0488
     26 C19         6.5088    7.3839    5.7635 C.3       1 <0>         0.0358
     27 O2          7.4543    8.0334    6.6178 O.3       1 <0>        -0.3567
     28 C20         8.5554    7.2009    6.9928 C.3       1 <0>         0.0354
     29 C21         9.2722    6.7138    5.7311 C.3       1 <0>        -0.0434
     30 C22         3.8387   -1.5231   -4.9046 C.ar      1 <0>         0.0354
     31 C23         3.1397   -2.6438   -4.4607 C.ar      1 <0>        -0.1996
     32 C24         2.4582   -3.4378   -5.3688 C.ar      1 <0>         0.1784
     33 C25         2.4715   -3.1183   -6.7187 C.ar      1 <0>        -0.2956
     34 C26         3.1664   -2.0032   -7.1640 C.ar      1 <0>         0.1785
     35 C27         3.8449   -1.2016   -6.2604 C.ar      1 <0>        -0.1736
     36 O3          3.1769   -1.6937   -8.4872 O.3       1 <0>        -0.3099
     37 C28         2.4514   -2.5601   -9.3619 C.3       1 <0>         0.0243
     38 O4          1.7762   -4.5310   -4.9368 O.3       1 <0>        -0.3110
     39 C29         1.0960   -5.3046   -5.9272 C.3       1 <0>         0.0242
     40 H1          1.0039    1.9031    0.0027 H         1 <0>         0.0792
     41 H2         -0.5459    1.8868   -0.8726 H         1 <0>         0.0535
     42 H3         -0.5289    1.8773    0.9072 H         1 <0>         0.0631
     43 H4          0.2319   -0.1594    2.1383 H         1 <0>         0.0630
     44 H5          0.7568   -1.6008    1.2356 H         1 <0>         0.0539
     45 H6          1.7647   -0.1336    1.2338 H         1 <0>         0.0792
     46 H7         -1.9605   -0.1726   -0.8702 H         1 <0>         0.0633
     47 H8         -1.4185   -1.6235    0.0069 H         1 <0>         0.0637
     48 H9         -1.9435   -0.1821    0.9097 H         1 <0>         0.0768
     49 H10         0.2179   -1.0371   -1.8404 H         1 <0>         0.3961
     50 H11         2.1325   -1.1275   -3.1729 H         1 <0>         0.4170
     51 H12         6.4032   -0.6599   -5.0584 H         1 <0>         0.1534
     52 H13         8.4269    0.5757   -4.2534 H         1 <0>         0.1712
     53 H14         5.9925    2.0642   -0.2459 H         1 <0>         0.1383
     54 H15         9.4075    3.1089   -0.6290 H         1 <0>         0.4062
     55 H16         6.9323    3.9254    0.4590 H         1 <0>         0.0681
     56 H17         7.4748    2.4704    1.3290 H         1 <0>         0.0684
     57 H18         9.6266    3.5858    1.8527 H         1 <0>         0.0835
     58 H19         9.0841    5.0408    0.9827 H         1 <0>         0.0832
     59 H20         7.1775    5.2681    2.5517 H         1 <0>         0.0917
     60 H21         7.7200    3.8131    3.4217 H         1 <0>         0.0925
     61 H22         9.8718    4.9285    3.9454 H         1 <0>         0.1343
     62 H23         9.3293    6.3835    3.0754 H         1 <0>         0.1322
     63 H24         7.6246    7.7523    3.9570 H         1 <0>         0.1395
     64 H25         6.5137    6.3643    3.8649 H         1 <0>         0.1442
     65 H26         5.7224    8.0872    5.4898 H         1 <0>         0.1422
     66 H27         6.0713    6.5327    6.2854 H         1 <0>         0.0816
     67 H28         9.2502    7.7719    7.6087 H         1 <0>         0.1422
     68 H29         8.1880    6.3435    7.5567 H         1 <0>         0.0814
     69 H30        10.0862    6.0449    6.0106 H         1 <0>         0.1428
     70 H31         9.6743    7.5691    5.1881 H         1 <0>         0.1390
     71 H32         3.1296   -2.8935   -3.4101 H         1 <0>         0.1343
     72 H33         1.9400   -3.7392   -7.4246 H         1 <0>         0.1389
     73 H34         4.3820   -0.3311   -6.6071 H         1 <0>         0.1379
     74 H35         2.8585   -3.5690   -9.2938 H         1 <0>         0.0580
     75 H36         1.4007   -2.5720   -9.0723 H         1 <0>         0.0575
     76 H37         2.5417   -2.2003  -10.3868 H         1 <0>         0.1060
     77 H38         1.8166   -5.6777   -6.6549 H         1 <0>         0.0582
     78 H39         0.5935   -6.1456   -5.4494 H         1 <0>         0.1058
     79 H40         0.3590   -4.6805   -6.4327 H         1 <0>         0.0580
     80 H41         7.9458    5.2031    5.3786 H         1 <0>         0.4234
@<TRIPOS>BOND
     1    1    2 1
     2    1   40 1
     3    1   41 1
     4    1   42 1
     5    2    3 1
     6    2    4 1
     7    2    5 1
     8    3   43 1
     9    3   44 1
    10    3   45 1
    11    4   46 1
    12    4   47 1
    13    4   48 1
    14    5    6 am
    15    5   49 1
    16    6    7 2
    17    6    8 am
    18    8    9 1
    19    8   50 1
    20    9   18 ar
    21    9   10 ar
    22   10   11 ar
    23   10   30 1
    24   11   12 ar
    25   11   51 1
    26   12   17 ar
    27   12   13 ar
    28   13   14 ar
    29   13   52 1
    30   14   15 ar
    31   15   16 ar
    32   15   19 1
    33   16   17 ar
    34   16   53 1
    35   17   18 ar
    36   19   20 1
    37   19   54 1
    38   20   21 1
    39   20   55 1
    40   20   56 1
    41   21   22 1
    42   21   57 1
    43   21   58 1
    44   22   23 1
    45   22   59 1
    46   22   60 1
    47   23   24 1
    48   23   61 1
    49   23   62 1
    50   24   29 1
    51   24   25 1
    52   24   80 1
    53   25   26 1
    54   25   63 1
    55   25   64 1
    56   26   27 1
    57   26   65 1
    58   26   66 1
    59   27   28 1
    60   28   29 1
    61   28   67 1
    62   28   68 1
    63   29   69 1
    64   29   70 1
    65   30   35 ar
    66   30   31 ar
    67   31   32 ar
    68   31   71 1
    69   32   33 ar
    70   32   38 1
    71   33   34 ar
    72   33   72 1
    73   34   35 ar
    74   34   36 1
    75   35   73 1
    76   36   37 1
    77   37   74 1
    78   37   75 1
    79   37   76 1
    80   38   39 1
    81   39   77 1
    82   39   78 1
    83   39   79 1
@<TRIPOS>MOLECULE
CHEMBL495984
   58    62     0     0     0
SMALL
USER_CHARGES

@<TRIPOS>ATOM
      1 C1          2.8074    1.3855    0.2799 C.3       1 <0>        -0.1603
      2 C2          1.6013    1.4522    1.2190 C.3       1 <0>        -0.1177
      3 C3          1.2430    0.0413    1.6899 C.3       1 <0>        -0.0994
      4 C4          0.7693   -0.7923    0.4958 C.3       1 <0>        -0.1399
      5 C5          0.3375   -2.1761    0.9860 C.3       1 <0>        -0.0347
      6 N1         -0.7580   -2.0369    1.9529 N.4       1 <0>        -0.3909
      7 C6         -0.2902   -1.3000    3.1330 C.3       1 <0>         0.2625
      8 C7          0.1174    0.1175    2.7254 C.3       1 <0>        -0.1488
      9 N2          0.8635   -1.9913    3.7139 N.pl3     1 <0>        -0.7239
     10 C8          0.7216   -2.7045    4.8794 C.2       1 <0>         0.3161
     11 C9          0.1439   -2.0841    6.0787 C.ar      1 <0>        -0.1505
     12 C10        -0.2775   -0.7517    6.0683 C.ar      1 <0>        -0.0673
     13 C11        -0.8119   -0.2007    7.1991 C.ar      1 <0>        -0.1375
     14 C12        -0.9392   -0.9540    8.3576 C.ar      1 <0>        -0.0424
     15 C13        -0.5298   -2.2699    8.3894 C.ar      1 <0>        -0.1555
     16 C14         0.0170   -2.8517    7.2500 C.ar      1 <0>         0.2089
     17 N3          0.4320   -4.1683    7.2611 N.am      1 <0>        -0.6233
     18 H1          0.3386   -4.6870    8.0755 H         1 <0>         0.4270
     19 C15         0.9616   -4.7487    6.1716 C.2       1 <0>         0.5623
     20 O1          1.3133   -5.9140    6.2306 O.2       1 <0>        -0.5354
     21 C16         1.1172   -4.0415    4.9556 C.2       1 <0>        -0.1863
     22 C17         1.6968   -4.7105    3.7790 C.2       1 <0>         0.3513
     23 N4          1.9984   -6.0449    3.6991 N.pl3     1 <0>        -0.5726
     24 H2          1.8702   -6.7069    4.3964 H         1 <0>         0.4386
     25 C18         2.5194   -6.2714    2.4376 C.ar      1 <0>         0.0558
     26 C19         2.9952   -7.3979    1.7829 C.ar      1 <0>        -0.1064
     27 C20         3.4614   -7.2946    0.4888 C.ar      1 <0>        -0.0928
     28 C21         3.4582   -6.0704   -0.1642 C.ar      1 <0>        -0.1148
     29 C22         2.9906   -4.9416    0.4691 C.ar      1 <0>        -0.0778
     30 C23         2.5138   -5.0284    1.7811 C.ar      1 <0>         0.0473
     31 N5          1.9978   -4.1197    2.6452 N.2       1 <0>        -0.5176
     32 C24        -1.2209   -3.3698    2.3614 C.3       1 <0>        -0.0535
     33 H3          2.5624    0.7658   -0.5827 H         1 <0>         0.0574
     34 H4          3.0626    2.3906   -0.0557 H         1 <0>         0.0630
     35 H5          3.6563    0.9525    0.8089 H         1 <0>         0.0582
     36 H6          1.8463    2.0719    2.0815 H         1 <0>         0.0728
     37 H7          0.7524    1.8852    0.6899 H         1 <0>         0.0700
     38 H8          2.1194   -0.4270    2.1380 H         1 <0>         0.0882
     39 H9         -0.0750   -0.2959    0.0174 H         1 <0>         0.0868
     40 H10         1.5840   -0.8978   -0.2206 H         1 <0>         0.1131
     41 H11        -0.0002   -2.7723    0.1383 H         1 <0>         0.1243
     42 H12         1.1826   -2.6717    1.4639 H         1 <0>         0.1628
     43 H13        -1.0913   -1.2494    3.8703 H         1 <0>         0.1498
     44 H14         0.4661    0.6623    3.6027 H         1 <0>         0.1171
     45 H15        -0.7404    0.6328    2.2933 H         1 <0>         0.1044
     46 H16         1.7276   -1.9453    3.2755 H         1 <0>         0.4336
     47 H17        -0.1810   -0.1596    5.1703 H         1 <0>         0.1345
     48 H18        -1.1372    0.8291    7.1912 H         1 <0>         0.1398
     49 H19        -1.3630   -0.5046    9.2435 H         1 <0>         0.1438
     50 H20        -0.6336   -2.8477    9.2959 H         1 <0>         0.1457
     51 H21         3.0009   -8.3539    2.2854 H         1 <0>         0.1281
     52 H22         3.8318   -8.1726   -0.0194 H         1 <0>         0.1365
     53 H23         3.8260   -6.0027   -1.1774 H         1 <0>         0.1348
     54 H24         2.9918   -3.9919   -0.0452 H         1 <0>         0.1273
     55 H25        -0.3969   -3.9155    2.8213 H         1 <0>         0.1237
     56 H26        -2.0346   -3.2676    3.0795 H         1 <0>         0.1174
     57 H27        -1.5747   -3.9155    1.4867 H         1 <0>         0.1222
     58 H28        -1.5213   -1.5346    1.5248 H         1 <0>         0.4244
@<TRIPOS>BOND
     1    1    2 1
     2    1   33 1
     3    1   34 1
     4    1   35 1
     5    2    3 1
     6    2   36 1
     7    2   37 1
     8    3    8 1
     9    3    4 1
    10    3   38 1
    11    4    5 1
    12    4   39 1
    13    4   40 1
    14    5    6 1
    15    5   41 1
    16    5   42 1
    17    6    7 1
    18    6   32 1
    19    6   58 1
    20    7    8 1
    21    7    9 1
    22    7   43 1
    23    8   44 1
    24    8   45 1
    25    9   10 1
    26    9   46 1
    27   10   21 2
    28   10   11 1
    29   11   16 ar
    30   11   12 ar
    31   12   13 ar
    32   12   47 1
    33   13   14 ar
    34   13   48 1
    35   14   15 ar
    36   14   49 1
    37   15   16 ar
    38   15   50 1
    39   16   17 1
    40   17   18 1
    41   17   19 am
    42   19   20 2
    43   19   21 1
    44   21   22 1
    45   22   31 2
    46   22   23 1
    47   23   24 1
    48   23   25 1
    49   25   30 ar
    50   25   26 ar
    51   26   27 ar
    52   26   51 1
    53   27   28 ar
    54   27   52 1
    55   28   29 ar
    56   28   53 1
    57   29   30 ar
    58   29   54 1
    59   30   31 1
    60   32   55 1
    61   32   56 1
    62   32   57 1
@<TRIPOS>MOLECULE
CHEMBL495984__1
   57    61     0     0     0
SMALL
USER_CHARGES

@<TRIPOS>ATOM
      1 C1         -1.1422    1.3766   -2.5446 C.3       1 <0>        -0.1546
      2 C2          0.2673    1.4566   -1.9547 C.3       1 <0>        -0.1175
      3 C3          0.8660    0.0511   -1.8719 C.3       1 <0>        -0.0864
      4 C4          0.0642   -0.7886   -0.8736 C.3       1 <0>        -0.1112
      5 C5          0.7040   -2.1733   -0.7495 C.3       1 <0>         0.0299
      6 N1          2.0930   -2.0331   -0.2942 N.3       1 <0>        -0.5275
      7 C6          2.8941   -1.2705   -1.2602 C.3       1 <0>         0.3039
      8 C7          2.3197    0.1411   -1.3995 C.3       1 <0>        -0.1198
      9 N2          2.8591   -1.9424   -2.5616 N.pl3     1 <0>        -0.7404
     10 C8          3.9570   -2.6393   -3.0045 C.2       1 <0>         0.3528
     11 C9          5.2772   -2.0004   -3.0794 C.ar      1 <0>        -0.1456
     12 C10         5.4541   -0.6663   -2.7026 C.ar      1 <0>        -0.0510
     13 C11         6.6943   -0.0978   -2.7824 C.ar      1 <0>        -0.1498
     14 C12         7.7795   -0.8351   -3.2347 C.ar      1 <0>        -0.0515
     15 C13         7.6270   -2.1523   -3.6113 C.ar      1 <0>        -0.1655
     16 C14         6.3737   -2.7517   -3.5384 C.ar      1 <0>         0.2045
     17 N3          6.2004   -4.0699   -3.9100 N.am      1 <0>        -0.6308
     18 H1          6.9649   -4.5773   -4.2245 H         1 <0>         0.4191
     19 C15         4.9989   -4.6672   -3.8461 C.2       1 <0>         0.5687
     20 O1          4.8961   -5.8332   -4.1852 O.2       1 <0>        -0.5553
     21 C16         3.8504   -3.9771   -3.3907 C.2       1 <0>        -0.2350
     22 C17         2.5497   -4.6643   -3.3286 C.2       1 <0>         0.3712
     23 N4          2.3518   -6.0007   -3.5586 N.pl3     1 <0>        -0.5839
     24 H2          3.0327   -6.6525   -3.7877 H         1 <0>         0.4327
     25 C18         0.9993   -6.2465   -3.4023 C.ar      1 <0>         0.0472
     26 C19         0.2116   -7.3836   -3.5046 C.ar      1 <0>        -0.1105
     27 C20        -1.1473   -7.2999   -3.2833 C.ar      1 <0>        -0.1052
     28 C21        -1.7335   -6.0849   -2.9587 C.ar      1 <0>        -0.1268
     29 C22        -0.9684   -4.9458   -2.8531 C.ar      1 <0>        -0.0709
     30 C23         0.4110   -5.0128   -3.0737 C.ar      1 <0>         0.0547
     31 N5          1.4044   -4.0903   -3.0388 N.2       1 <0>        -0.4958
     32 C24         2.6959   -3.3466   -0.0309 C.3       1 <0>         0.0196
     33 H3         -1.0941    0.9428   -3.5433 H         1 <0>         0.0526
     34 H4         -1.7680    0.7521   -1.9069 H         1 <0>         0.0568
     35 H5         -1.5688    2.3780   -2.6036 H         1 <0>         0.0526
     36 H6          0.8930    2.0811   -2.5923 H         1 <0>         0.0603
     37 H7          0.2191    1.8905   -0.9560 H         1 <0>         0.0632
     38 H8          0.8308   -0.4184   -2.8550 H         1 <0>         0.0675
     39 H9          0.0672   -0.2979    0.0997 H         1 <0>         0.0666
     40 H10        -0.9618   -0.8921   -1.2265 H         1 <0>         0.0678
     41 H11         0.1439   -2.7689   -0.0286 H         1 <0>         0.0649
     42 H12         0.6882   -2.6690   -1.7201 H         1 <0>         0.0876
     43 H13         3.9246   -1.2104   -0.9103 H         1 <0>         0.0972
     44 H14         2.9050    0.7019   -2.1282 H         1 <0>         0.0724
     45 H15         2.3581    0.6465   -0.4345 H         1 <0>         0.0857
     46 H16         2.0608   -1.8951   -3.1105 H         1 <0>         0.4178
     47 H17         4.6138   -0.0866   -2.3500 H         1 <0>         0.1405
     48 H18         6.8309    0.9332   -2.4915 H         1 <0>         0.1341
     49 H19         8.7535   -0.3720   -3.2926 H         1 <0>         0.1361
     50 H20         8.4781   -2.7174   -3.9617 H         1 <0>         0.1382
     51 H21         0.6612   -8.3325   -3.7572 H         1 <0>         0.1208
     52 H22        -1.7593   -8.1861   -3.3637 H         1 <0>         0.1286
     53 H23        -2.7987   -6.0326   -2.7879 H         1 <0>         0.1280
     54 H24        -1.4317   -4.0034   -2.6008 H         1 <0>         0.1260
     55 H25         2.7500   -3.9143   -0.9599 H         1 <0>         0.0433
     56 H26         3.6999   -3.2115    0.3713 H         1 <0>         0.0588
     57 H27         2.0851   -3.8886    0.6911 H         1 <0>         0.0632
@<TRIPOS>BOND
     1    1    2 1
     2    1   33 1
     3    1   34 1
     4    1   35 1
     5    2    3 1
     6    2   36 1
     7    2   37 1
     8    3    8 1
     9    3    4 1
    10    3   38 1
    11    4    5 1
    12    4   39 1
    13    4   40 1
    14    5    6 1
    15    5   41 1
    16    5   42 1
    17    6    7 1
    18    6   32 1
    19    7    8 1
    20    7    9 1
    21    7   43 1
    22    8   44 1
    23    8   45 1
    24    9   10 1
    25    9   46 1
    26   10   21 2
    27   10   11 1
    28   11   16 ar
    29   11   12 ar
    30   12   13 ar
    31   12   47 1
    32   13   14 ar
    33   13   48 1
    34   14   15 ar
    35   14   49 1
    36   15   16 ar
    37   15   50 1
    38   16   17 1
    39   17   18 1
    40   17   19 am
    41   19   20 2
    42   19   21 1
    43   21   22 1
    44   22   31 2
    45   22   23 1
    46   23   24 1
    47   23   25 1
    48   25   30 ar
    49   25   26 ar
    50   26   27 ar
    51   26   51 1
    52   27   28 ar
    53   27   52 1
    54   28   29 ar
    55   28   53 1
    56   29   30 ar
    57   29   54 1
    58   30   31 1
    59   32   55 1
    60   32   56 1
    61   32   57 1
@<TRIPOS>MOLECULE
CHEMBL495984__2
   58    62     0     0     0
SMALL
USER_CHARGES

@<TRIPOS>ATOM
      1 C1         -0.8066   -5.6444   -3.2758 C.3       1 <0>        -0.1602
      2 C2          0.2277   -5.1617   -2.2569 C.3       1 <0>        -0.1191
      3 C3         -0.4472   -4.9686   -0.8974 C.3       1 <0>        -0.0969
      4 C4         -1.4709   -3.8334   -0.9905 C.3       1 <0>        -0.1463
      5 C5         -2.0844   -3.5927    0.3905 C.3       1 <0>        -0.0043
      6 N1         -1.0287   -3.2248    1.3416 N.4       1 <0>        -0.3953
      7 C6         -0.0824   -4.3370    1.4901 C.3       1 <0>         0.2636
      8 C7          0.6082   -4.6063    0.1514 C.3       1 <0>        -0.1481
      9 N2          0.9238   -3.9902    2.4968 N.pl3     1 <0>        -0.7265
     10 C8          0.8578   -4.5430    3.7527 C.2       1 <0>         0.3136
     11 C9          0.7961   -5.9990    3.9346 C.ar      1 <0>        -0.1500
     12 C10         0.8028   -6.8629    2.8361 C.ar      1 <0>        -0.0669
     13 C11         0.7448   -8.2137    3.0353 C.ar      1 <0>        -0.1377
     14 C12         0.6794   -8.7343    4.3201 C.ar      1 <0>        -0.0429
     15 C13         0.6717   -7.9000    5.4174 C.ar      1 <0>        -0.1553
     16 C14         0.7299   -6.5215    5.2384 C.ar      1 <0>         0.2083
     17 N3          0.7243   -5.6692    6.3244 N.am      1 <0>        -0.6232
     18 H1          0.6787   -6.0424    7.2185 H         1 <0>         0.4271
     19 C15         0.7809   -4.3357    6.1729 C.2       1 <0>         0.5619
     20 O1          0.7732   -3.6243    7.1624 O.2       1 <0>        -0.5348
     21 C16         0.8533   -3.7366    4.8928 C.2       1 <0>        -0.1828
     22 C17         0.9193   -2.2714    4.7637 C.2       1 <0>         0.3436
     23 N4          0.8083   -1.3823    5.8006 N.pl3     1 <0>        -0.5737
     24 H2          0.6744   -1.6022    6.7357 H         1 <0>         0.4382
     25 C18         0.9235   -0.1123    5.2641 C.ar      1 <0>         0.0555
     26 C19         0.8929    1.1650    5.8042 C.ar      1 <0>        -0.1081
     27 C20         1.0411    2.2623    4.9815 C.ar      1 <0>        -0.0922
     28 C21         1.2210    2.0980    3.6156 C.ar      1 <0>        -0.1169
     29 C22         1.2536    0.8387    3.0614 C.ar      1 <0>        -0.0745
     30 C23         1.1054   -0.2848    3.8809 C.ar      1 <0>         0.0468
     31 N5          1.0991   -1.6189    3.6380 N.2       1 <0>        -0.5109
     32 C24        -1.6314   -2.9192    2.6459 C.3       1 <0>        -0.0584
     33 H3         -1.6008   -4.9033   -3.3664 H         1 <0>         0.0573
     34 H4         -0.3259   -5.7819   -4.2443 H         1 <0>         0.0638
     35 H5         -1.2302   -6.5918   -2.9426 H         1 <0>         0.0587
     36 H6          1.0218   -5.9028   -2.1664 H         1 <0>         0.0744
     37 H7          0.6512   -4.2142   -2.5901 H         1 <0>         0.0704
     38 H8         -0.9495   -5.8909   -0.6056 H         1 <0>         0.0924
     39 H9         -0.9762   -2.9243   -1.3324 H         1 <0>         0.0913
     40 H10        -2.2561   -4.1082   -1.6947 H         1 <0>         0.1174
     41 H11        -2.8138   -2.7852    0.3278 H         1 <0>         0.1332
     42 H12        -2.5790   -4.5023    0.7314 H         1 <0>         0.1277
     43 H13        -0.6197   -5.2307    1.8075 H         1 <0>         0.1480
     44 H14         1.3091   -5.4336    0.2633 H         1 <0>         0.1176
     45 H15         1.1461   -3.7133   -0.1669 H         1 <0>         0.0988
     46 H16         1.6366   -3.3703    2.2766 H         1 <0>         0.4349
     47 H17         0.8532   -6.4646    1.8335 H         1 <0>         0.1339
     48 H18         0.7496   -8.8813    2.1864 H         1 <0>         0.1396
     49 H19         0.6337   -9.8040    4.4617 H         1 <0>         0.1438
     50 H20         0.6209   -8.3152    6.4131 H         1 <0>         0.1459
     51 H21         0.7530    1.3002    6.8665 H         1 <0>         0.1280
     52 H22         1.0167    3.2561    5.4035 H         1 <0>         0.1364
     53 H23         1.3358    2.9653    2.9822 H         1 <0>         0.1346
     54 H24         1.3933    0.7186    1.9972 H         1 <0>         0.1282
     55 H25        -2.1638   -3.7960    3.0145 H         1 <0>         0.1137
     56 H26        -0.8482   -2.6459    3.3530 H         1 <0>         0.1318
     57 H27        -2.3294   -2.0890    2.5380 H         1 <0>         0.1212
     58 H28        -0.5389   -2.4111    1.0007 H         1 <0>         0.4237
@<TRIPOS>BOND
     1    1    2 1
     2    1   33 1
     3    1   34 1
     4    1   35 1
     5    2    3 1
     6    2   36 1
     7    2   37 1
     8    3    8 1
     9    3    4 1
    10    3   38 1
    11    4    5 1
    12    4   39 1
    13    4   40 1
    14    5    6 1
    15    5   41 1
    16    5   42 1
    17    6    7 1
    18    6   32 1
    19    6   58 1
    20    7    8 1
    21    7    9 1
    22    7   43 1
    23    8   44 1
    24    8   45 1
    25    9   10 1
    26    9   46 1
    27   10   21 2
    28   10   11 1
    29   11   16 ar
    30   11   12 ar
    31   12   13 ar
    32   12   47 1
    33   13   14 ar
    34   13   48 1
    35   14   15 ar
    36   14   49 1
    37   15   16 ar
    38   15   50 1
    39   16   17 1
    40   17   18 1
    41   17   19 am
    42   19   20 2
    43   19   21 1
    44   21   22 1
    45   22   31 2
    46   22   23 1
    47   23   24 1
    48   23   25 1
    49   25   30 ar
    50   25   26 ar
    51   26   27 ar
    52   26   51 1
    53   27   28 ar
    54   27   52 1
    55   28   29 ar
    56   28   53 1
    57   29   30 ar
    58   29   54 1
    59   30   31 1
    60   32   55 1
    61   32   56 1
    62   32   57 1
@<TRIPOS>MOLECULE
CHEMBL495984__3
   57    61     0     0     0
SMALL
USER_CHARGES

@<TRIPOS>ATOM
      1 C1         -2.4003   -5.6657    2.2834 C.3       1 <0>        -0.1549
      2 C2         -2.0134   -5.1851    0.8833 C.3       1 <0>        -0.1173
      3 C3         -0.5009   -4.9631    0.8202 C.3       1 <0>        -0.0859
      4 C4         -0.1127   -3.8150    1.7560 C.3       1 <0>        -0.1145
      5 C5          1.3916   -3.5575    1.6429 C.3       1 <0>         0.0591
      6 N1          1.7281   -3.2164    0.2548 N.3       1 <0>        -0.5404
      7 C6          1.4079   -4.3226   -0.6564 C.3       1 <0>         0.3192
      8 C7         -0.0959   -4.6030   -0.6119 C.3       1 <0>        -0.1207
      9 N2          1.7965   -3.9588   -2.0213 N.pl3     1 <0>        -0.7128
     10 C8          2.9321   -4.4950   -2.5782 C.2       1 <0>         0.3484
     11 C9          3.1403   -5.9483   -2.6170 C.ar      1 <0>        -0.1454
     12 C10         2.1898   -6.8264   -2.0890 C.ar      1 <0>        -0.0516
     13 C11         2.4100   -8.1743   -2.1394 C.ar      1 <0>        -0.1502
     14 C12         3.5701   -8.6779   -2.7108 C.ar      1 <0>        -0.0519
     15 C13         4.5203   -7.8294   -3.2373 C.ar      1 <0>        -0.1650
     16 C14         4.3174   -6.4536   -3.1971 C.ar      1 <0>         0.2043
     17 N3          5.2565   -5.5873   -3.7199 N.am      1 <0>        -0.6305
     18 H1          6.0640   -5.9487   -4.1176 H         1 <0>         0.4195
     19 C15         5.0789   -4.2561   -3.6917 C.2       1 <0>         0.5684
     20 O1          5.9368   -3.5320   -4.1661 O.2       1 <0>        -0.5533
     21 C16         3.9185   -3.6740   -3.1286 C.2       1 <0>        -0.2287
     22 C17         3.7541   -2.2109   -3.1191 C.2       1 <0>         0.3606
     23 N4          4.7022   -1.3078   -3.5235 N.pl3     1 <0>        -0.5847
     24 H2          5.5875   -1.5151   -3.8617 H         1 <0>         0.4322
     25 C18         4.1606   -0.0454   -3.3597 C.ar      1 <0>         0.0467
     26 C19         4.6304    1.2390   -3.5917 C.ar      1 <0>        -0.1127
     27 C20         3.8250    2.3248   -3.3181 C.ar      1 <0>        -0.1044
     28 C21         2.5461    2.1420   -2.8118 C.ar      1 <0>        -0.1298
     29 C22         2.0627    0.8755   -2.5747 C.ar      1 <0>        -0.0649
     30 C23         2.8658   -0.2367   -2.8468 C.ar      1 <0>         0.0560
     31 N5          2.6744   -1.5738   -2.7272 N.2       1 <0>        -0.4822
     32 C24         3.1397   -2.8279    0.1355 C.3       1 <0>         0.0170
     33 H3         -1.8862   -6.6018    2.5012 H         1 <0>         0.0527
     34 H4         -2.1125   -4.9137    3.0181 H         1 <0>         0.0568
     35 H5         -3.4778   -5.8238    2.3284 H         1 <0>         0.0539
     36 H6         -2.3012   -5.9371    0.1486 H         1 <0>         0.0621
     37 H7         -2.5274   -4.2489    0.6655 H         1 <0>         0.0647
     38 H8          0.0140   -5.8737    1.1262 H         1 <0>         0.0687
     39 H9         -0.6583   -2.9147    1.4732 H         1 <0>         0.0748
     40 H10        -0.3598   -4.0834    2.7831 H         1 <0>         0.0716
     41 H11         1.6688   -2.7312    2.2974 H         1 <0>         0.0779
     42 H12         1.9367   -4.4538    1.9390 H         1 <0>         0.0310
     43 H13         1.9530   -5.2153   -0.3495 H         1 <0>         0.0565
     44 H14        -0.3309   -5.4343   -1.2765 H         1 <0>         0.0729
     45 H15        -0.6412   -3.7151   -0.9319 H         1 <0>         0.0830
     46 H16         1.2519   -3.3394   -2.5318 H         1 <0>         0.4242
     47 H17         1.2850   -6.4413   -1.6425 H         1 <0>         0.1398
     48 H18         1.6756   -8.8527   -1.7310 H         1 <0>         0.1339
     49 H19         3.7301   -9.7454   -2.7429 H         1 <0>         0.1364
     50 H20         5.4196   -8.2315   -3.6801 H         1 <0>         0.1388
     51 H21         5.6249    1.3885   -3.9853 H         1 <0>         0.1204
     52 H22         4.1924    3.3241   -3.4990 H         1 <0>         0.1281
     53 H23         1.9253    3.0005   -2.6018 H         1 <0>         0.1277
     54 H24         1.0665    0.7409   -2.1798 H         1 <0>         0.1280
     55 H25         3.7732   -3.6783    0.3881 H         1 <0>         0.0119
     56 H26         3.3448   -2.5133   -0.8877 H         1 <0>         0.0934
     57 H27         3.3487   -2.0040    0.8178 H         1 <0>         0.0614
@<TRIPOS>BOND
     1    1    2 1
     2    1   33 1
     3    1   34 1
     4    1   35 1
     5    2    3 1
     6    2   36 1
     7    2   37 1
     8    3    8 1
     9    3    4 1
    10    3   38 1
    11    4    5 1
    12    4   39 1
    13    4   40 1
    14    5    6 1
    15    5   41 1
    16    5   42 1
    17    6    7 1
    18    6   32 1
    19    7    8 1
    20    7    9 1
    21    7   43 1
    22    8   44 1
    23    8   45 1
    24    9   10 1
    25    9   46 1
    26   10   21 2
    27   10   11 1
    28   11   16 ar
    29   11   12 ar
    30   12   13 ar
    31   12   47 1
    32   13   14 ar
    33   13   48 1
    34   14   15 ar
    35   14   49 1
    36   15   16 ar
    37   15   50 1
    38   16   17 1
    39   17   18 1
    40   17   19 am
    41   19   20 2
    42   19   21 1
    43   21   22 1
    44   22   31 2
    45   22   23 1
    46   23   24 1
    47   23   25 1
    48   25   30 ar
    49   25   26 ar
    50   26   27 ar
    51   26   51 1
    52   27   28 ar
    53   27   52 1
    54   28   29 ar
    55   28   53 1
    56   29   30 ar
    57   29   54 1
    58   30   31 1
    59   32   55 1
    60   32   56 1
    61   32   57 1
@<TRIPOS>MOLECULE
CHEMBL495984__4
   58    62     0     0     0
SMALL
USER_CHARGES

@<TRIPOS>ATOM
      1 C1         -2.7377   -4.8162   -1.9871 C.3       1 <0>        -0.1601
      2 C2         -2.2793   -4.5595   -0.5501 C.3       1 <0>        -0.1188
      3 C3         -0.7539   -4.4474   -0.5137 C.3       1 <0>        -0.0964
      4 C4         -0.3126   -3.2079   -1.2973 C.3       1 <0>        -0.1471
      5 C5          1.2064   -3.0575   -1.1902 C.3       1 <0>        -0.0054
      6 N1          1.5889   -2.9090    0.2191 N.4       1 <0>        -0.3947
      7 C6          1.2334   -4.1238    0.9623 C.3       1 <0>         0.2682
      8 C7         -0.2846   -4.3153    0.9381 C.3       1 <0>        -0.1494
      9 N2          1.6869   -3.9972    2.3495 N.pl3     1 <0>        -0.7305
     10 C8          2.8021   -4.6788    2.7726 C.2       1 <0>         0.3109
     11 C9          2.8798   -6.1413    2.6633 C.ar      1 <0>        -0.1494
     12 C10         1.8223   -6.8806    2.1263 C.ar      1 <0>        -0.0638
     13 C11         1.9224   -8.2406    2.0365 C.ar      1 <0>        -0.1384
     14 C12         3.0661   -8.8933    2.4745 C.ar      1 <0>        -0.0433
     15 C13         4.1207   -8.1833    3.0073 C.ar      1 <0>        -0.1559
     16 C14         4.0408   -6.7980    3.1084 C.ar      1 <0>         0.2069
     17 N3          5.0864   -6.0688    3.6381 N.am      1 <0>        -0.6224
     18 H1          5.8819   -6.5338    3.9412 H         1 <0>         0.4269
     19 C15         5.0293   -4.7309    3.7435 C.2       1 <0>         0.5606
     20 O1          5.9782   -4.1311    4.2181 O.2       1 <0>        -0.5352
     21 C16         3.8963   -4.0002    3.3132 C.2       1 <0>        -0.1736
     22 C17         3.8695   -2.5335    3.4389 C.2       1 <0>         0.3504
     23 N4          4.9257   -1.7565    3.8374 N.pl3     1 <0>        -0.5732
     24 H2          5.8103   -2.0695    4.0831 H         1 <0>         0.4382
     25 C18         4.4944   -0.4420    3.8232 C.ar      1 <0>         0.0553
     26 C19         5.0987    0.7705    4.1211 C.ar      1 <0>        -0.1066
     27 C20         4.3807    1.9425    4.0049 C.ar      1 <0>        -0.0934
     28 C21         3.0564    1.9181    3.5917 C.ar      1 <0>        -0.1155
     29 C22         2.4396    0.7248    3.2922 C.ar      1 <0>        -0.0781
     30 C23         3.1529   -0.4730    3.4040 C.ar      1 <0>         0.0463
     31 N5          2.8315   -1.7713    3.1806 N.2       1 <0>        -0.5152
     32 C24         0.8827   -1.7583    0.7980 C.3       1 <0>        -0.0710
     33 H3         -2.2964   -5.7450   -2.3488 H         1 <0>         0.0589
     34 H4         -3.8244   -4.8961   -2.0130 H         1 <0>         0.0637
     35 H5         -2.4187   -3.9905   -2.6232 H         1 <0>         0.0572
     36 H6         -2.7206   -3.6308   -0.1884 H         1 <0>         0.0694
     37 H7         -2.5982   -5.3852    0.0860 H         1 <0>         0.0744
     38 H8         -0.3122   -5.3384   -0.9598 H         1 <0>         0.0926
     39 H9         -0.5944   -3.3197   -2.3443 H         1 <0>         0.1156
     40 H10        -0.7961   -2.3236   -0.8820 H         1 <0>         0.0928
     41 H11         1.6888   -3.9421   -1.6059 H         1 <0>         0.1271
     42 H12         1.5239   -2.1760   -1.7472 H         1 <0>         0.1321
     43 H13         1.7152   -4.9857    0.5007 H         1 <0>         0.1463
     44 H14        -0.7675   -3.4540    1.3997 H         1 <0>         0.0993
     45 H15        -0.5464   -5.2187    1.4889 H         1 <0>         0.1160
     46 H16         1.1998   -3.4320    2.9694 H         1 <0>         0.4324
     47 H17         0.9292   -6.3790    1.7839 H         1 <0>         0.1339
     48 H18         1.1051   -8.8118    1.6219 H         1 <0>         0.1391
     49 H19         3.1305   -9.9686    2.3974 H         1 <0>         0.1433
     50 H20         5.0065   -8.7008    3.3449 H         1 <0>         0.1454
     51 H21         6.1290    0.7968    4.4436 H         1 <0>         0.1278
     52 H22         4.8525    2.8857    4.2376 H         1 <0>         0.1362
     53 H23         2.5051    2.8427    3.5048 H         1 <0>         0.1346
     54 H24         1.4083    0.7133    2.9718 H         1 <0>         0.1274
     55 H25        -0.1930   -1.9194    0.7280 H         1 <0>         0.1219
     56 H26         1.1661   -1.6472    1.8446 H         1 <0>         0.1470
     57 H27         1.1511   -0.8545    0.2510 H         1 <0>         0.1180
     58 H28         2.5843   -2.7566    0.2821 H         1 <0>         0.4214
@<TRIPOS>BOND
     1    1    2 1
     2    1   33 1
     3    1   34 1
     4    1   35 1
     5    2    3 1
     6    2   36 1
     7    2   37 1
     8    3    8 1
     9    3    4 1
    10    3   38 1
    11    4    5 1
    12    4   39 1
    13    4   40 1
    14    5    6 1
    15    5   41 1
    16    5   42 1
    17    6    7 1
    18    6   32 1
    19    6   58 1
    20    7    8 1
    21    7    9 1
    22    7   43 1
    23    8   44 1
    24    8   45 1
    25    9   10 1
    26    9   46 1
    27   10   21 2
    28   10   11 1
    29   11   16 ar
    30   11   12 ar
    31   12   13 ar
    32   12   47 1
    33   13   14 ar
    34   13   48 1
    35   14   15 ar
    36   14   49 1
    37   15   16 ar
    38   15   50 1
    39   16   17 1
    40   17   18 1
    41   17   19 am
    42   19   20 2
    43   19   21 1
    44   21   22 1
    45   22   31 2
    46   22   23 1
    47   23   24 1
    48   23   25 1
    49   25   30 ar
    50   25   26 ar
    51   26   27 ar
    52   26   51 1
    53   27   28 ar
    54   27   52 1
    55   28   29 ar
    56   28   53 1
    57   29   30 ar
    58   29   54 1
    59   30   31 1
    60   32   55 1
    61   32   56 1
    62   32   57 1
@<TRIPOS>MOLECULE
CHEMBL495984__5
   57    61     0     0     0
SMALL
USER_CHARGES

@<TRIPOS>ATOM
      1 C1         -0.0172   -4.8805    3.4337 C.3       1 <0>        -0.1542
      2 C2          0.9458   -4.5762    2.2845 C.3       1 <0>        -0.1174
      3 C3          0.1636   -4.4921    0.9722 C.3       1 <0>        -0.0818
      4 C4         -0.7893   -3.2945    1.0203 C.3       1 <0>        -0.1556
      5 C5         -1.5243   -3.1796   -0.3171 C.3       1 <0>         0.0569
      6 N1         -0.5480   -3.0080   -1.4005 N.3       1 <0>        -0.5396
      7 C6          0.3480   -4.1675   -1.4965 C.3       1 <0>         0.3214
      8 C7          1.1389   -4.3119   -0.1943 C.3       1 <0>        -0.1638
      9 N2          1.2768   -3.9755   -2.6130 N.pl3     1 <0>        -0.7182
     10 C8          1.1006   -4.6765   -3.7813 C.2       1 <0>         0.3569
     11 C9          1.0215   -6.1430   -3.7775 C.ar      1 <0>        -0.1433
     12 C10         1.1230   -6.8665   -2.5861 C.ar      1 <0>        -0.0514
     13 C11         1.0454   -8.2307   -2.6126 C.ar      1 <0>        -0.1504
     14 C12         0.8665   -8.9031   -3.8133 C.ar      1 <0>        -0.0529
     15 C13         0.7640   -8.2088   -4.9997 C.ar      1 <0>        -0.1647
     16 C14         0.8402   -6.8196   -4.9967 C.ar      1 <0>         0.2040
     17 N3          0.7387   -6.1059   -6.1740 N.am      1 <0>        -0.6301
     18 H1          0.6135   -6.5847   -7.0083 H         1 <0>         0.4192
     19 C15         0.8088   -4.7646   -6.1923 C.2       1 <0>         0.5680
     20 O1          0.7138   -4.1790   -7.2569 O.2       1 <0>        -0.5541
     21 C16         0.9860   -4.0144   -5.0054 C.2       1 <0>        -0.2207
     22 C17         1.0533   -2.5447   -5.0615 C.2       1 <0>         0.3735
     23 N4          0.8244   -1.7866   -6.1800 N.pl3     1 <0>        -0.5842
     24 H2          0.5927   -2.1171   -7.0620 H         1 <0>         0.4323
     25 C18         0.9849   -0.4617   -5.8157 C.ar      1 <0>         0.0473
     26 C19         0.8855    0.7413   -6.4991 C.ar      1 <0>        -0.1103
     27 C20         1.1110    1.9291   -5.8351 C.ar      1 <0>        -0.1066
     28 C21         1.4372    1.9300   -4.4865 C.ar      1 <0>        -0.1279
     29 C22         1.5408    0.7466   -3.7917 C.ar      1 <0>        -0.0712
     30 C23         1.3150   -0.4669   -4.4493 C.ar      1 <0>         0.0555
     31 N5          1.3363   -1.7614   -4.0459 N.2       1 <0>        -0.4903
     32 C24         0.2161   -1.7651   -1.2286 C.3       1 <0>         0.0002
     33 H3         -0.7610   -4.0868    3.5043 H         1 <0>         0.0563
     34 H4         -0.5168   -5.8311    3.2471 H         1 <0>         0.0539
     35 H5          0.5401   -4.9403    4.3686 H         1 <0>         0.0537
     36 H6          1.4454   -3.6255    2.4711 H         1 <0>         0.0608
     37 H7          1.6896   -5.3698    2.2139 H         1 <0>         0.0622
     38 H8         -0.4089   -5.4088    0.8301 H         1 <0>         0.0731
     39 H9         -1.5134   -3.4375    1.8224 H         1 <0>         0.0725
     40 H10        -0.2195   -2.3832    1.2019 H         1 <0>         0.0672
     41 H11        -2.1048   -4.0855   -0.4914 H         1 <0>         0.0731
     42 H12        -2.1930   -2.3192   -0.2912 H         1 <0>         0.0778
     43 H13        -0.2413   -5.0688   -1.6653 H         1 <0>         0.0963
     44 H14         1.7390   -3.4166   -0.0318 H         1 <0>         0.0754
     45 H15         1.7924   -5.1818   -0.2600 H         1 <0>         0.0741
     46 H16         2.0162   -3.3535   -2.5273 H         1 <0>         0.4178
     47 H17         1.2626   -6.3496   -1.6481 H         1 <0>         0.1390
     48 H18         1.1242   -8.7898   -1.6919 H         1 <0>         0.1329
     49 H19         0.8074   -9.9815   -3.8183 H         1 <0>         0.1356
     50 H20         0.6246   -8.7415   -5.9287 H         1 <0>         0.1383
     51 H21         0.6324    0.7479   -7.5490 H         1 <0>         0.1205
     52 H22         1.0336    2.8649   -6.3687 H         1 <0>         0.1280
     53 H23         1.6114    2.8668   -3.9780 H         1 <0>         0.1272
     54 H24         1.7958    0.7549   -2.7423 H         1 <0>         0.1254
     55 H25         0.8046   -1.8241   -0.3131 H         1 <0>         0.0233
     56 H26         0.8821   -1.6273   -2.0804 H         1 <0>         0.1118
     57 H27        -0.4715   -0.9218   -1.1649 H         1 <0>         0.0573
@<TRIPOS>BOND
     1    1    2 1
     2    1   33 1
     3    1   34 1
     4    1   35 1
     5    2    3 1
     6    2   36 1
     7    2   37 1
     8    3    8 1
     9    3    4 1
    10    3   38 1
    11    4    5 1
    12    4   39 1
    13    4   40 1
    14    5    6 1
    15    5   41 1
    16    5   42 1
    17    6    7 1
    18    6   32 1
    19    7    8 1
    20    7    9 1
    21    7   43 1
    22    8   44 1
    23    8   45 1
    24    9   10 1
    25    9   46 1
    26   10   21 2
    27   10   11 1
    28   11   16 ar
    29   11   12 ar
    30   12   13 ar
    31   12   47 1
    32   13   14 ar
    33   13   48 1
    34   14   15 ar
    35   14   49 1
    36   15   16 ar
    37   15   50 1
    38   16   17 1
    39   17   18 1
    40   17   19 am
    41   19   20 2
    42   19   21 1
    43   21   22 1
    44   22   31 2
    45   22   23 1
    46   23   24 1
    47   23   25 1
    48   25   30 ar
    49   25   26 ar
    50   26   27 ar
    51   26   51 1
    52   27   28 ar
    53   27   52 1
    54   28   29 ar
    55   28   53 1
    56   29   30 ar
    57   29   54 1
    58   30   31 1
    59   32   55 1
    60   32   56 1
    61   32   57 1
@<TRIPOS>MOLECULE
CHEMBL495984__6
   58    62     0     0     0
SMALL
USER_CHARGES

@<TRIPOS>ATOM
      1 C1         -1.5732    0.8198    3.2318 C.3       1 <0>        -0.1604
      2 C2         -0.2423    1.1931    2.5758 C.3       1 <0>        -0.1176
      3 C3          0.5428   -0.0802    2.2544 C.3       1 <0>        -0.0989
      4 C4         -0.2078   -0.8906    1.1937 C.3       1 <0>        -0.1418
      5 C5          0.6207   -2.1214    0.8193 C.3       1 <0>        -0.0344
      6 N1          1.9199   -1.6969    0.2842 N.4       1 <0>        -0.3946
      7 C6          2.6750   -0.9809    1.3194 C.3       1 <0>         0.2663
      8 C7          1.9256    0.2938    1.7130 C.3       1 <0>        -0.1501
      9 N2          2.8259   -1.8410    2.4957 N.pl3     1 <0>        -0.7281
     10 C8          4.0415   -2.4174    2.7738 C.2       1 <0>         0.3123
     11 C9          5.2479   -1.5955    2.9347 C.ar      1 <0>        -0.1494
     12 C10         5.1936   -0.2046    2.8096 C.ar      1 <0>        -0.0654
     13 C11         6.3322    0.5352    2.9649 C.ar      1 <0>        -0.1383
     14 C12         7.5419   -0.0841    3.2458 C.ar      1 <0>        -0.0431
     15 C13         7.6176   -1.4545    3.3732 C.ar      1 <0>        -0.1557
     16 C14         6.4712   -2.2277    3.2193 C.ar      1 <0>         0.2076
     17 N3          6.5259   -3.6014    3.3440 N.am      1 <0>        -0.6228
     18 H1          7.3759   -4.0252    3.5409 H         1 <0>         0.4269
     19 C15         5.4305   -4.3655    3.2000 C.2       1 <0>         0.5615
     20 O1          5.5292   -5.5743    3.3194 O.2       1 <0>        -0.5355
     21 C16         4.1639   -3.8011    2.9172 C.2       1 <0>        -0.1775
     22 C17         2.9830   -4.6681    2.7707 C.2       1 <0>         0.3535
     23 N4          3.0045   -6.0383    2.7772 N.pl3     1 <0>        -0.5726
     24 H2          3.7881   -6.6013    2.8775 H         1 <0>         0.4385
     25 C18         1.6998   -6.4684    2.6144 C.ar      1 <0>         0.0556
     26 C19         1.1022   -7.7182    2.5428 C.ar      1 <0>        -0.1062
     27 C20        -0.2628   -7.8180    2.3715 C.ar      1 <0>        -0.0936
     28 C21        -1.0443   -6.6760    2.2702 C.ar      1 <0>        -0.1150
     29 C22        -0.4695   -5.4274    2.3385 C.ar      1 <0>        -0.0787
     30 C23         0.9131   -5.3079    2.5124 C.ar      1 <0>         0.0465
     31 N5          1.7486   -4.2452    2.6197 N.2       1 <0>        -0.5177
     32 C24         1.7073   -0.8093   -0.8669 C.3       1 <0>        -0.0552
     33 H3         -1.3823    0.2684    4.1525 H         1 <0>         0.0584
     34 H4         -2.1325    1.7269    3.4607 H         1 <0>         0.0631
     35 H5         -2.1528    0.1980    2.5495 H         1 <0>         0.0574
     36 H6         -0.4332    1.7444    1.6550 H         1 <0>         0.0691
     37 H7          0.3373    1.8149    3.2581 H         1 <0>         0.0731
     38 H8          0.6549   -0.6774    3.1593 H         1 <0>         0.0886
     39 H9         -1.1713   -1.2079    1.5925 H         1 <0>         0.1122
     40 H10        -0.3647   -0.2744    0.3084 H         1 <0>         0.0880
     41 H11         0.7767   -2.7370    1.7052 H         1 <0>         0.1643
     42 H12         0.0891   -2.7008    0.0644 H         1 <0>         0.1235
     43 H13         3.6601   -0.7183    0.9337 H         1 <0>         0.1482
     44 H14         1.8130    0.9346    0.8385 H         1 <0>         0.1044
     45 H15         2.4870    0.8230    2.4829 H         1 <0>         0.1158
     46 H16         2.0675   -2.0034    3.0783 H         1 <0>         0.4324
     47 H17         4.2555    0.2838    2.5908 H         1 <0>         0.1341
     48 H18         6.2903    1.6100    2.8679 H         1 <0>         0.1394
     49 H19         8.4333    0.5138    3.3654 H         1 <0>         0.1434
     50 H20         8.5639   -1.9267    3.5923 H         1 <0>         0.1454
     51 H21         1.7045   -8.6113    2.6206 H         1 <0>         0.1280
     52 H22        -0.7265   -8.7918    2.3156 H         1 <0>         0.1363
     53 H23        -2.1121   -6.7676    2.1362 H         1 <0>         0.1346
     54 H24        -1.0839   -4.5429    2.2581 H         1 <0>         0.1269
     55 H25         1.0827    0.0320   -0.5665 H         1 <0>         0.1291
     56 H26         2.6688   -0.4392   -1.2227 H         1 <0>         0.1218
     57 H27         1.2127   -1.3621   -1.6655 H         1 <0>         0.1253
     58 H28         2.4421   -2.5081   -0.0112 H         1 <0>         0.4212
@<TRIPOS>BOND
     1    1    2 1
     2    1   33 1
     3    1   34 1
     4    1   35 1
     5    2    3 1
     6    2   36 1
     7    2   37 1
     8    3    8 1
     9    3    4 1
    10    3   38 1
    11    4    5 1
    12    4   39 1
    13    4   40 1
    14    5    6 1
    15    5   41 1
    16    5   42 1
    17    6    7 1
    18    6   32 1
    19    6   58 1
    20    7    8 1
    21    7    9 1
    22    7   43 1
    23    8   44 1
    24    8   45 1
    25    9   10 1
    26    9   46 1
    27   10   21 2
    28   10   11 1
    29   11   16 ar
    30   11   12 ar
    31   12   13 ar
    32   12   47 1
    33   13   14 ar
    34   13   48 1
    35   14   15 ar
    36   14   49 1
    37   15   16 ar
    38   15   50 1
    39   16   17 1
    40   17   18 1
    41   17   19 am
    42   19   20 2
    43   19   21 1
    44   21   22 1
    45   22   31 2
    46   22   23 1
    47   23   24 1
    48   23   25 1
    49   25   30 ar
    50   25   26 ar
    51   26   27 ar
    52   26   51 1
    53   27   28 ar
    54   27   52 1
    55   28   29 ar
    56   28   53 1
    57   29   30 ar
    58   29   54 1
    59   30   31 1
    60   32   55 1
    61   32   56 1
    62   32   57 1
@<TRIPOS>MOLECULE
CHEMBL495984__7
   57    61     0     0     0
SMALL
USER_CHARGES

@<TRIPOS>ATOM
      1 C1          3.1098    1.1917   -0.3045 C.3       1 <0>        -0.1542
      2 C2          1.9075    1.3987   -1.2278 C.3       1 <0>        -0.1175
      3 C3          1.3739    0.0389   -1.6830 C.3       1 <0>        -0.0830
      4 C4          0.8216   -0.7242   -0.4759 C.3       1 <0>        -0.1535
      5 C5          0.2346   -2.0570   -0.9462 C.3       1 <0>         0.0350
      6 N1         -0.8352   -1.8056   -1.9202 N.3       1 <0>        -0.5399
      7 C6         -0.3192   -1.1155   -3.1093 C.3       1 <0>         0.3226
      8 C7          0.2513    0.2453   -2.7036 C.3       1 <0>        -0.1638
      9 N2          0.7370   -1.9242   -3.7231 N.pl3     1 <0>        -0.7185
     10 C8          0.4898   -2.6056   -4.8901 C.2       1 <0>         0.3554
     11 C9          0.0303   -1.9002   -6.0935 C.ar      1 <0>        -0.1431
     12 C10        -0.1685   -0.5168   -6.0856 C.ar      1 <0>        -0.0507
     13 C11        -0.5963    0.1132   -7.2204 C.ar      1 <0>        -0.1507
     14 C12        -0.8349   -0.6099   -8.3806 C.ar      1 <0>        -0.0531
     15 C13        -0.6452   -1.9749   -8.4100 C.ar      1 <0>        -0.1648
     16 C14        -0.2101   -2.6374   -7.2665 C.ar      1 <0>         0.2033
     17 N3         -0.0131   -4.0037   -7.2758 N.am      1 <0>        -0.6299
     18 H1         -0.1822   -4.5006   -8.0916 H         1 <0>         0.4192
     19 C15         0.4074   -4.6618   -6.1829 C.2       1 <0>         0.5676
     20 O1          0.5667   -5.8687   -6.2404 O.2       1 <0>        -0.5540
     21 C16         0.6740   -3.9876   -4.9675 C.2       1 <0>        -0.2180
     22 C17         1.1387   -4.7397   -3.7901 C.2       1 <0>         0.3721
     23 N4          1.2455   -6.1040   -3.7172 N.pl3     1 <0>        -0.5844
     24 H2          1.0318   -6.7366   -4.4208 H         1 <0>         0.4323
     25 C18         1.7155   -6.4102   -2.4526 C.ar      1 <0>         0.0473
     26 C19         2.0183   -7.5972   -1.8017 C.ar      1 <0>        -0.1105
     27 C20         2.4809   -7.5694   -0.5025 C.ar      1 <0>        -0.1066
     28 C21         2.6459   -6.3612    0.1596 C.ar      1 <0>        -0.1282
     29 C22         2.3504   -5.1734   -0.4695 C.ar      1 <0>        -0.0708
     30 C23         1.8807   -5.1832   -1.7868 C.ar      1 <0>         0.0557
     31 N5          1.5190   -4.2043   -2.6527 N.2       1 <0>        -0.4875
     32 C24        -1.9365   -1.0494   -1.3092 C.3       1 <0>         0.0220
     33 H3          2.8038    0.6115    0.5660 H         1 <0>         0.0564
     34 H4          3.8923    0.6557   -0.8416 H         1 <0>         0.0538
     35 H5          3.4899    2.1605    0.0198 H         1 <0>         0.0527
     36 H6          1.1250    1.9347   -0.6906 H         1 <0>         0.0598
     37 H7          2.2135    1.9789   -2.0983 H         1 <0>         0.0607
     38 H8          2.1806   -0.5345   -2.1397 H         1 <0>         0.0711
     39 H9          1.6261   -0.9117    0.2353 H         1 <0>         0.0697
     40 H10         0.0420   -0.1321    0.0034 H         1 <0>         0.0610
     41 H11         1.0178   -2.6543   -1.4130 H         1 <0>         0.1202
     42 H12        -0.1724   -2.5965   -0.0909 H         1 <0>         0.0659
     43 H13        -1.1284   -0.9713   -3.8252 H         1 <0>         0.0955
     44 H14        -0.5372    0.8527   -2.2594 H         1 <0>         0.0790
     45 H15         0.6483    0.7506   -3.5841 H         1 <0>         0.0739
     46 H16         1.6108   -1.9786   -3.3055 H         1 <0>         0.4172
     47 H17         0.0150    0.0521   -5.1861 H         1 <0>         0.1389
     48 H18        -0.7502    1.1822   -7.2142 H         1 <0>         0.1329
     49 H19        -1.1730   -0.0981   -9.2694 H         1 <0>         0.1355
     50 H20        -0.8334   -2.5285   -9.3180 H         1 <0>         0.1381
     51 H21         1.8918   -8.5411   -2.3110 H         1 <0>         0.1202
     52 H22         2.7158   -8.4944    0.0030 H         1 <0>         0.1278
     53 H23         3.0089   -6.3530    1.1768 H         1 <0>         0.1271
     54 H24         2.4806   -4.2369    0.0523 H         1 <0>         0.1252
     55 H25        -1.5595   -0.0982   -0.9334 H         1 <0>         0.0343
     56 H26        -2.7087   -0.8647   -2.0560 H         1 <0>         0.0641
     57 H27        -2.3584   -1.6243   -0.4848 H         1 <0>         0.0690
@<TRIPOS>BOND
     1    1    2 1
     2    1   33 1
     3    1   34 1
     4    1   35 1
     5    2    3 1
     6    2   36 1
     7    2   37 1
     8    3    8 1
     9    3    4 1
    10    3   38 1
    11    4    5 1
    12    4   39 1
    13    4   40 1
    14    5    6 1
    15    5   41 1
    16    5   42 1
    17    6    7 1
    18    6   32 1
    19    7    8 1
    20    7    9 1
    21    7   43 1
    22    8   44 1
    23    8   45 1
    24    9   10 1
    25    9   46 1
    26   10   21 2
    27   10   11 1
    28   11   16 ar
    29   11   12 ar
    30   12   13 ar
    31   12   47 1
    32   13   14 ar
    33   13   48 1
    34   14   15 ar
    35   14   49 1
    36   15   16 ar
    37   15   50 1
    38   16   17 1
    39   17   18 1
    40   17   19 am
    41   19   20 2
    42   19   21 1
    43   21   22 1
    44   22   31 2
    45   22   23 1
    46   23   24 1
    47   23   25 1
    48   25   30 ar
    49   25   26 ar
    50   26   27 ar
    51   26   51 1
    52   27   28 ar
    53   27   52 1
    54   28   29 ar
    55   28   53 1
    56   29   30 ar
    57   29   54 1
    58   30   31 1
    59   32   55 1
    60   32   56 1
    61   32   57 1
@<TRIPOS>MOLECULE
CHEMBL51485
   73    77     0     0     0
SMALL
USER_CHARGES

@<TRIPOS>ATOM
      1 C1         -0.0178    1.4648    0.0101 C.3       1 <0>        -0.0458
      2 N1          0.0021   -0.0041    0.0020 N.4       1 <0>        -0.3885
      3 C2         -1.3761   -0.5122    0.0107 C.3       1 <0>        -0.0026
      4 C3         -1.3560   -2.0421   -0.0167 C.3       1 <0>         0.0253
      5 N2         -0.6244   -2.5407    1.1564 N.3       1 <0>        -0.5394
      6 C4          0.7499   -2.0201    1.1745 C.3       1 <0>         0.0195
      7 C5          0.7125   -0.4904    1.1921 C.3       1 <0>        -0.0028
      8 C6         -0.6316   -4.0091    1.1963 C.3       1 <0>         0.0600
      9 C7         -0.0856   -4.4853    2.5439 C.3       1 <0>        -0.1331
     10 C8         -0.0931   -6.0148    2.5855 C.3       1 <0>         0.1390
     11 N3          0.4297   -6.4708    3.8758 N.pl3     1 <0>        -0.6960
     12 C9          0.5190   -7.8231    4.1463 C.ar      1 <0>         0.5922
     13 N4          0.1274   -8.6879    3.2129 N.ar      1 <0>        -0.5715
     14 C10         0.1891   -9.9888    3.4132 C.ar      1 <0>         0.2661
     15 C11         0.6815  -10.4549    4.6442 C.ar      1 <0>        -0.2914
     16 C12         0.7788  -11.8260    4.9335 C.ar      1 <0>         0.0489
     17 C13         1.2765  -12.1945    6.1732 C.ar      1 <0>        -0.1623
     18 C14         1.6636  -11.1946    7.0907 C.ar      1 <0>         0.4865
     19 N5          1.5623   -9.9146    6.7961 N.ar      1 <0>        -0.4761
     20 C15         1.0903   -9.5054    5.6171 C.ar      1 <0>         0.4315
     21 N6          0.9939   -8.2041    5.3168 N.ar      1 <0>        -0.5614
     22 N7          2.1613  -11.5679    8.3308 N.am      1 <0>        -0.6582
     23 C16         2.5354  -10.6251    9.2184 C.2       1 <0>         0.6917
     24 O1          2.4366   -9.4477    8.9324 O.2       1 <0>        -0.5094
     25 N8          3.0189  -10.9877   10.4230 N.am      1 <0>        -0.7366
     26 C17         3.4255   -9.9630   11.3878 C.3       1 <0>         0.1820
     27 C18         3.9259  -10.6268   12.6448 C.ar      1 <0>        -0.1140
     28 C19         3.0452  -10.9201   13.6691 C.ar      1 <0>        -0.0989
     29 C20         3.5042  -11.5290   14.8221 C.ar      1 <0>        -0.1214
     30 C21         4.8437  -11.8450   14.9506 C.ar      1 <0>        -0.1087
     31 C22         5.7243  -11.5526   13.9259 C.ar      1 <0>        -0.1215
     32 C23         5.2645  -10.9476   12.7712 C.ar      1 <0>        -0.0990
     33 C24         1.4009  -13.6275    6.5327 C.ar      1 <0>        -0.0431
     34 C25         0.3399  -14.2890    7.1511 C.ar      1 <0>        -0.0131
     35 C26         0.4619  -15.6243    7.4831 C.ar      1 <0>        -0.1037
     36 C27         1.6330  -16.3052    7.2037 C.ar      1 <0>        -0.0819
     37 C28         2.6888  -15.6548    6.5911 C.ar      1 <0>        -0.1039
     38 C29         2.5773  -14.3212    6.2489 C.ar      1 <0>        -0.0131
     39 Cl1         3.9009  -13.5084    5.4736 Cl        1 <0>        -0.0436
     40 Cl2        -1.1305  -13.4360    7.5031 Cl        1 <0>        -0.0430
     41 H1          1.0047    1.8421    0.0024 H         1 <0>         0.1242
     42 H2         -0.5450    1.8259   -0.8730 H         1 <0>         0.1243
     43 H3         -0.5280    1.8163    0.9069 H         1 <0>         0.1232
     44 H4         -1.8832   -0.1716    0.9134 H         1 <0>         0.1378
     45 H5         -1.9060   -0.1400   -0.8661 H         1 <0>         0.1361
     46 H6         -2.3783   -2.4196    0.0047 H         1 <0>         0.1246
     47 H7         -0.8610   -2.3831   -0.9260 H         1 <0>         0.0615
     48 H8          1.2641   -2.3816    2.0650 H         1 <0>         0.1256
     49 H9          1.2796   -2.3607    0.2848 H         1 <0>         0.0617
     50 H10         1.7310   -0.1020    1.1912 H         1 <0>         0.1357
     51 H11         0.1947   -0.1499    2.0888 H         1 <0>         0.1379
     52 H12        -1.6519   -4.3710    1.0694 H         1 <0>         0.0940
     53 H13        -0.0057   -4.3975    0.3929 H         1 <0>         0.0521
     54 H14         0.9347   -4.1235    2.6709 H         1 <0>         0.0712
     55 H15        -0.7115   -4.0969    3.3473 H         1 <0>         0.0851
     56 H16        -1.1134   -6.3766    2.4585 H         1 <0>         0.0720
     57 H17         0.5328   -6.4032    1.7821 H         1 <0>         0.0689
     58 H18         0.7132   -5.8235    4.5404 H         1 <0>         0.4165
     59 H19        -0.1317  -10.6811    2.6488 H         1 <0>         0.1808
     60 H20         0.4748  -12.5700    4.2122 H         1 <0>         0.1526
     61 H21         2.2401  -12.5073    8.5590 H         1 <0>         0.4139
     62 H22         3.0977  -11.9272   10.6512 H         1 <0>         0.3977
     63 H23         4.2204   -9.3538   10.9575 H         1 <0>         0.0782
     64 H24         2.5712   -9.3296   11.6268 H         1 <0>         0.0784
     65 H25         1.9986  -10.6732   13.5687 H         1 <0>         0.1242
     66 H26         2.8162  -11.7575   15.6227 H         1 <0>         0.1254
     67 H27         5.2025  -12.3201   15.8518 H         1 <0>         0.1248
     68 H28         6.7709  -11.7992   14.0265 H         1 <0>         0.1253
     69 H29         5.9518  -10.7224   11.9691 H         1 <0>         0.1240
     70 H30        -0.3587  -16.1376    7.9622 H         1 <0>         0.1464
     71 H31         1.7234  -17.3492    7.4653 H         1 <0>         0.1481
     72 H32         3.6007  -16.1919    6.3759 H         1 <0>         0.1463
     73 H33         0.4748   -0.3293   -0.8280 H         1 <0>         0.4224
@<TRIPOS>BOND
     1    1    2 1
     2    1   41 1
     3    1   42 1
     4    1   43 1
     5    2    7 1
     6    2    3 1
     7    2   73 1
     8    3    4 1
     9    3   44 1
    10    3   45 1
    11    4    5 1
    12    4   46 1
    13    4   47 1
    14    5    6 1
    15    5    8 1
    16    6    7 1
    17    6   48 1
    18    6   49 1
    19    7   50 1
    20    7   51 1
    21    8    9 1
    22    8   52 1
    23    8   53 1
    24    9   10 1
    25    9   54 1
    26    9   55 1
    27   10   11 1
    28   10   56 1
    29   10   57 1
    30   11   12 1
    31   11   58 1
    32   12   21 ar
    33   12   13 ar
    34   13   14 ar
    35   14   15 ar
    36   14   59 1
    37   15   20 ar
    38   15   16 ar
    39   16   17 ar
    40   16   60 1
    41   17   18 ar
    42   17   33 1
    43   18   19 ar
    44   18   22 1
    45   19   20 ar
    46   20   21 ar
    47   22   23 am
    48   22   61 1
    49   23   24 2
    50   23   25 am
    51   25   26 1
    52   25   62 1
    53   26   27 1
    54   26   63 1
    55   26   64 1
    56   27   32 ar
    57   27   28 ar
    58   28   29 ar
    59   28   65 1
    60   29   30 ar
    61   29   66 1
    62   30   31 ar
    63   30   67 1
    64   31   32 ar
    65   31   68 1
    66   32   69 1
    67   33   38 ar
    68   33   34 ar
    69   34   35 ar
    70   34   40 1
    71   35   36 ar
    72   35   70 1
    73   36   37 ar
    74   36   71 1
    75   37   38 ar
    76   37   72 1
    77   38   39 1
@<TRIPOS>MOLECULE
CHEMBL51485__1
   73    77     0     0     0
SMALL
USER_CHARGES

@<TRIPOS>ATOM
      1 C1         -0.0178    1.4648    0.0101 C.3       1 <0>         0.0193
      2 N1          0.0021   -0.0041    0.0020 N.3       1 <0>        -0.5437
      3 C2         -1.3607   -0.5489   -0.0764 C.3       1 <0>         0.0238
      4 C3         -1.2932   -2.0762   -0.1426 C.3       1 <0>        -0.0017
      5 N2         -0.6107   -2.5886    1.0529 N.4       1 <0>        -0.3863
      6 C4          0.7570   -2.0553    1.1043 C.3       1 <0>        -0.0075
      7 C5          0.7065   -0.5278    1.1808 C.3       1 <0>         0.0245
      8 C6         -0.5621   -4.0557    0.9977 C.3       1 <0>        -0.0027
      9 C7          0.0360   -4.5955    2.2984 C.3       1 <0>        -0.1662
     10 C8          0.0866   -6.1236    2.2409 C.3       1 <0>         0.1448
     11 N3          0.6594   -6.6404    3.4863 N.pl3     1 <0>        -0.7010
     12 C9          0.8060   -8.0028    3.6663 C.ar      1 <0>         0.5903
     13 N4          0.4229   -8.8207    2.6882 N.ar      1 <0>        -0.5742
     14 C10         0.5383  -10.1284    2.8022 C.ar      1 <0>         0.2678
     15 C11         1.0794  -10.6528    3.9886 C.ar      1 <0>        -0.2882
     16 C12         1.2353  -12.0347    4.1860 C.ar      1 <0>         0.0473
     17 C13         1.7783  -12.4621    5.3871 C.ar      1 <0>        -0.1573
     18 C14         2.1514  -11.5085    6.3582 C.ar      1 <0>         0.4883
     19 N5          1.9949  -10.2172    6.1497 N.ar      1 <0>        -0.4756
     20 C15         1.4776   -9.7522    5.0111 C.ar      1 <0>         0.4307
     21 N6          1.3249   -8.4391    4.7982 N.ar      1 <0>        -0.5574
     22 N7          2.6947  -11.9406    7.5595 N.am      1 <0>        -0.6575
     23 C16         3.0561  -11.0427    8.4973 C.2       1 <0>         0.6920
     24 O1          2.9061   -9.8541    8.2907 O.2       1 <0>        -0.5101
     25 N8          3.5839  -11.4625    9.6643 N.am      1 <0>        -0.7358
     26 C17         3.9768  -10.4865   10.6837 C.3       1 <0>         0.1822
     27 C18         4.5340  -11.2093   11.8829 C.ar      1 <0>        -0.1149
     28 C19         3.6916  -11.6015   12.9064 C.ar      1 <0>        -0.0989
     29 C20         4.2027  -12.2646   14.0064 C.ar      1 <0>        -0.1213
     30 C21         5.5560  -12.5358   14.0827 C.ar      1 <0>        -0.1081
     31 C22         6.3982  -12.1444   13.0588 C.ar      1 <0>        -0.1212
     32 C23         5.8865  -11.4852   11.9568 C.ar      1 <0>        -0.0989
     33 C24         1.9653  -13.9092    5.6499 C.ar      1 <0>        -0.0461
     34 C25         0.9461  -14.6496    6.2488 C.ar      1 <0>        -0.0127
     35 C26         1.1264  -15.9976    6.4905 C.ar      1 <0>        -0.1033
     36 C27         2.3144  -16.6133    6.1402 C.ar      1 <0>        -0.0805
     37 C28         3.3290  -15.8844    5.5465 C.ar      1 <0>        -0.1033
     38 C29         3.1590  -14.5370    5.2942 C.ar      1 <0>        -0.0127
     39 Cl1         4.4309  -13.6255    4.5425 Cl        1 <0>        -0.0432
     40 Cl2        -0.5455  -13.8787    6.6897 Cl        1 <0>        -0.0433
     41 H1          1.0047    1.8421    0.0024 H         1 <0>         0.0845
     42 H2         -0.5450    1.8259   -0.8730 H         1 <0>         0.0841
     43 H3         -0.5280    1.8163    0.9069 H         1 <0>         0.0397
     44 H4         -1.9242   -0.2477    0.8067 H         1 <0>         0.0605
     45 H5         -1.8539   -0.1676   -0.9705 H         1 <0>         0.1244
     46 H6         -2.3035   -2.4830   -0.1865 H         1 <0>         0.1371
     47 H7         -0.7413   -2.3773   -1.0330 H         1 <0>         0.1389
     48 H8          1.2666   -2.4465    1.9848 H         1 <0>         0.1367
     49 H9          1.2983   -2.3564    0.2075 H         1 <0>         0.1393
     50 H10         1.7215   -0.1310    1.2040 H         1 <0>         0.1239
     51 H11         0.1771   -0.2262    2.0846 H         1 <0>         0.0606
     52 H12        -1.5711   -4.4482    0.8715 H         1 <0>         0.1369
     53 H13         0.0569   -4.3674    0.1563 H         1 <0>         0.1364
     54 H14         1.0451   -4.2031    2.4246 H         1 <0>         0.0953
     55 H15        -0.5829   -4.2839    3.1397 H         1 <0>         0.0951
     56 H16        -0.9224   -6.5160    2.1146 H         1 <0>         0.0785
     57 H17         0.7056   -6.4352    1.3995 H         1 <0>         0.0788
     58 H18         0.9356   -6.0264    4.1846 H         1 <0>         0.4176
     59 H19         0.2238  -10.7824    2.0023 H         1 <0>         0.1823
     60 H20         0.9406  -12.7423    3.4252 H         1 <0>         0.1541
     61 H21         2.8144  -12.8890    7.7244 H         1 <0>         0.4147
     62 H22         3.7036  -12.4109    9.8291 H         1 <0>         0.3982
     63 H23         4.7370   -9.8206   10.2753 H         1 <0>         0.0785
     64 H24         3.1060   -9.9034   10.9832 H         1 <0>         0.0785
     65 H25         2.6343  -11.3896   12.8468 H         1 <0>         0.1241
     66 H26         3.5447  -12.5704   14.8064 H         1 <0>         0.1256
     67 H27         5.9554  -13.0532   14.9425 H         1 <0>         0.1251
     68 H28         7.4556  -12.3561   13.1186 H         1 <0>         0.1256
     69 H29         6.5439  -11.1827   11.1551 H         1 <0>         0.1241
     70 H30         0.3382  -16.5720    6.9545 H         1 <0>         0.1470
     71 H31         2.4505  -17.6675    6.3313 H         1 <0>         0.1488
     72 H32         4.2545  -16.3708    5.2756 H         1 <0>         0.1470
     73 H33        -1.1152   -2.2999    1.8777 H         1 <0>         0.4209
@<TRIPOS>BOND
     1    1    2 1
     2    1   41 1
     3    1   42 1
     4    1   43 1
     5    2    7 1
     6    2    3 1
     7    3    4 1
     8    3   44 1
     9    3   45 1
    10    4    5 1
    11    4   46 1
    12    4   47 1
    13    5    6 1
    14    5    8 1
    15    5   73 1
    16    6    7 1
    17    6   48 1
    18    6   49 1
    19    7   50 1
    20    7   51 1
    21    8    9 1
    22    8   52 1
    23    8   53 1
    24    9   10 1
    25    9   54 1
    26    9   55 1
    27   10   11 1
    28   10   56 1
    29   10   57 1
    30   11   12 1
    31   11   58 1
    32   12   21 ar
    33   12   13 ar
    34   13   14 ar
    35   14   15 ar
    36   14   59 1
    37   15   20 ar
    38   15   16 ar
    39   16   17 ar
    40   16   60 1
    41   17   18 ar
    42   17   33 1
    43   18   19 ar
    44   18   22 1
    45   19   20 ar
    46   20   21 ar
    47   22   23 am
    48   22   61 1
    49   23   24 2
    50   23   25 am
    51   25   26 1
    52   25   62 1
    53   26   27 1
    54   26   63 1
    55   26   64 1
    56   27   32 ar
    57   27   28 ar
    58   28   29 ar
    59   28   65 1
    60   29   30 ar
    61   29   66 1
    62   30   31 ar
    63   30   67 1
    64   31   32 ar
    65   31   68 1
    66   32   69 1
    67   33   38 ar
    68   33   34 ar
    69   34   35 ar
    70   34   40 1
    71   35   36 ar
    72   35   70 1
    73   36   37 ar
    74   36   71 1
    75   37   38 ar
    76   37   72 1
    77   38   39 1
@<TRIPOS>MOLECULE
CHEMBL524453
   63    67     0     0     0
SMALL
USER_CHARGES

@<TRIPOS>ATOM
      1 C1          5.4627   -3.6689    1.4559 C.3       1 <0>         0.0717
      2 N1          4.7112   -2.4427    1.7350 N.am      1 <0>        -0.5681
      3 C2          3.5571   -2.4935    2.5269 C.ar      1 <0>         0.0960
      4 C3          2.4295   -3.1624    2.0686 C.ar      1 <0>        -0.0761
      5 C4          1.2919   -3.2123    2.8486 C.ar      1 <0>        -0.1560
      6 C5          1.2749   -2.5937    4.0925 C.ar      1 <0>         0.1982
      7 C6          2.4032   -1.9249    4.5509 C.ar      1 <0>        -0.1595
      8 C7          3.5423   -1.8798    3.7727 C.ar      1 <0>        -0.0585
      9 N2          0.1223   -2.6436    4.8828 N.pl3     1 <0>        -0.6662
     10 C8          0.0454   -1.8988    6.0293 C.2       1 <0>         0.3321
     11 C9         -0.1671   -2.5258    7.2536 C.2       1 <0>        -0.2236
     12 C10        -0.4269   -1.8763    8.5527 C.ar      1 <0>        -0.0493
     13 C11        -0.5365   -0.5460    8.9553 C.ar      1 <0>        -0.0882
     14 C12        -0.7884   -0.2471   10.2633 C.ar      1 <0>        -0.0780
     15 C13        -0.9379   -1.2739   11.2035 C.ar      1 <0>        -0.0975
     16 C14        -0.8304   -2.6096   10.8102 C.ar      1 <0>        -0.0683
     17 C15        -0.5745   -2.9174    9.4849 C.ar      1 <0>         0.1291
     18 N3         -0.4183   -4.1255    8.8161 N.am      1 <0>        -0.6523
     19 C16        -0.1848   -3.9227    7.5087 C.2       1 <0>         0.5649
     20 O1         -0.0125   -4.7964    6.6766 O.2       1 <0>        -0.5082
     21 C17        -1.2094   -0.9437   12.6142 C.2       1 <0>         0.5094
     22 O2         -1.3395   -1.8328   13.4322 O.2       1 <0>        -0.5013
     23 O3         -1.3132    0.3444   12.9968 O.3       1 <0>        -0.3473
     24 C18        -1.5773    0.5912   14.3793 C.3       1 <0>         0.0340
     25 C19         0.1877   -0.4327    5.9668 C.ar      1 <0>        -0.0989
     26 C20         1.1208    0.2177    6.7792 C.ar      1 <0>        -0.0829
     27 C21         1.2482    1.5893    6.7153 C.ar      1 <0>        -0.1216
     28 C22         0.4549    2.3217    5.8495 C.ar      1 <0>        -0.0920
     29 C23        -0.4712    1.6849    5.0420 C.ar      1 <0>        -0.1194
     30 C24        -0.6060    0.3133    5.0907 C.ar      1 <0>        -0.0761
     31 C25         5.1305   -1.2656    1.2297 C.2       1 <0>         0.4954
     32 O4          4.5611   -0.2384    1.5326 O.2       1 <0>        -0.4999
     33 C26         6.3067   -1.2259    0.2884 C.3       1 <0>         0.0910
     34 N4          6.5615    0.1588   -0.1164 N.pl3     1 <0>        -0.4500
     35 C27         6.0172    0.8032   -1.1945 C.2       1 <0>        -0.0475
     36 C28         6.5182    2.0532   -1.1950 C.2       1 <0>        -0.0252
     37 N5          7.3458    2.1690   -0.1459 N.2       1 <0>        -0.4909
     38 C29         7.3729    1.0397    0.5076 C.2       1 <0>         0.1930
     39 H1          5.0792   -4.1309    0.5461 H         1 <0>         0.0657
     40 H2          6.5172   -3.4267    1.3238 H         1 <0>         0.0774
     41 H3          5.3507   -4.3615    2.2901 H         1 <0>         0.0824
     42 H4          2.4427   -3.6433    1.1017 H         1 <0>         0.1290
     43 H5          0.4149   -3.7319    2.4919 H         1 <0>         0.1320
     44 H6          2.3902   -1.4437    5.5176 H         1 <0>         0.1284
     45 H7          4.4208   -1.3638    4.1309 H         1 <0>         0.1249
     46 H8         -0.6227   -3.2059    4.6188 H         1 <0>         0.4219
     47 H9         -0.4217    0.2481    8.2324 H         1 <0>         0.1433
     48 H10        -0.8723    0.7839   10.5737 H         1 <0>         0.1451
     49 H11        -0.9458   -3.3996   11.5375 H         1 <0>         0.1437
     50 H12        -0.4745   -4.9981    9.2360 H         1 <0>         0.4200
     51 H13        -1.6365    1.6659   14.5517 H         1 <0>         0.1054
     52 H14        -2.5230    0.1260   14.6573 H         1 <0>         0.0625
     53 H15        -0.7737    0.1701   14.9836 H         1 <0>         0.0626
     54 H16         1.7403   -0.3526    7.4556 H         1 <0>         0.1306
     55 H17         1.9685    2.0932    7.3427 H         1 <0>         0.1327
     56 H18         0.5589    3.3958    5.8040 H         1 <0>         0.1293
     57 H19        -1.0868    2.2630    4.3688 H         1 <0>         0.1301
     58 H20        -1.3260   -0.1828    4.4567 H         1 <0>         0.1256
     59 H21         7.1876   -1.6256    0.7906 H         1 <0>         0.1258
     60 H22         6.0868   -1.8276   -0.5935 H         1 <0>         0.1245
     61 H23         5.3202    0.3886   -1.9078 H         1 <0>         0.1724
     62 H24         6.2930    2.8269   -1.9141 H         1 <0>         0.1705
     63 H25         7.9505    0.8416    1.3984 H         1 <0>         0.2024
@<TRIPOS>BOND
     1    1    2 1
     2    1   39 1
     3    1   40 1
     4    1   41 1
     5    2    3 1
     6    2   31 am
     7    3    8 ar
     8    3    4 ar
     9    4    5 ar
    10    4   42 1
    11    5    6 ar
    12    5   43 1
    13    6    7 ar
    14    6    9 1
    15    7    8 ar
    16    7   44 1
    17    8   45 1
    18    9   10 1
    19    9   46 1
    20   10   11 2
    21   10   25 1
    22   11   19 1
    23   11   12 1
    24   12   17 ar
    25   12   13 ar
    26   13   14 ar
    27   13   47 1
    28   14   15 ar
    29   14   48 1
    30   15   16 ar
    31   15   21 1
    32   16   17 ar
    33   16   49 1
    34   17   18 1
    35   18   19 am
    36   18   50 1
    37   19   20 2
    38   21   22 2
    39   21   23 1
    40   23   24 1
    41   24   51 1
    42   24   52 1
    43   24   53 1
    44   25   30 ar
    45   25   26 ar
    46   26   27 ar
    47   26   54 1
    48   27   28 ar
    49   27   55 1
    50   28   29 ar
    51   28   56 1
    52   29   30 ar
    53   29   57 1
    54   30   58 1
    55   31   32 2
    56   31   33 1
    57   33   34 1
    58   33   59 1
    59   33   60 1
    60   34   38 1
    61   34   35 1
    62   35   36 2
    63   35   61 1
    64   36   37 1
    65   36   62 1
    66   37   38 2
    67   38   63 1
@<TRIPOS>MOLECULE
CHEMBL524453__1
   64    68     0     0     0
SMALL
USER_CHARGES

@<TRIPOS>ATOM
      1 C1          5.5547   -3.7161    1.2450 C.3       1 <0>         0.0631
      2 N1          4.7589   -2.5310    1.5745 N.am      1 <0>        -0.5500
      3 C2          3.6185   -2.6545    2.3782 C.ar      1 <0>         0.0783
      4 C3          2.5120   -3.3520    1.9110 C.ar      1 <0>        -0.0695
      5 C4          1.3879   -3.4735    2.7026 C.ar      1 <0>        -0.1595
      6 C5          1.3634   -2.8984    3.9670 C.ar      1 <0>         0.2052
      7 C6          2.4705   -2.2011    4.4344 C.ar      1 <0>        -0.1575
      8 C7          3.5963   -2.0844    3.6444 C.ar      1 <0>        -0.0541
      9 N2          0.2244   -3.0209    4.7691 N.pl3     1 <0>        -0.6753
     10 C8          0.1365   -2.3240    5.9446 C.2       1 <0>         0.3216
     11 C9         -0.0494   -3.0041    7.1447 C.2       1 <0>        -0.2123
     12 C10        -0.0389   -4.4651    7.3503 C.ar      1 <0>        -0.0610
     13 C11         0.1424   -5.5527    6.4971 C.ar      1 <0>        -0.0817
     14 C12         0.0965   -6.8241    6.9923 C.ar      1 <0>        -0.0794
     15 C13        -0.1319   -7.0398    8.3569 C.ar      1 <0>        -0.0915
     16 C14        -0.3143   -5.9570    9.2198 C.ar      1 <0>        -0.0676
     17 C15        -0.2691   -4.6660    8.7219 C.ar      1 <0>         0.1345
     18 N3         -0.4123   -3.4226    9.3256 N.am      1 <0>        -0.6519
     19 C16        -0.2822   -2.4346    8.4245 C.2       1 <0>         0.5656
     20 O1         -0.3554   -1.2422    8.6660 O.2       1 <0>        -0.4952
     21 C17        -0.1806   -8.4153    8.8845 C.2       1 <0>         0.5071
     22 O2         -0.3788   -8.6053   10.0683 O.2       1 <0>        -0.4969
     23 O3         -0.0054   -9.4622    8.0541 O.3       1 <0>        -0.3481
     24 C18        -0.0652  -10.7670    8.6336 C.3       1 <0>         0.0334
     25 C19         0.2388   -0.8532    5.9390 C.ar      1 <0>        -0.0987
     26 C20        -0.5321   -0.0989    5.0498 C.ar      1 <0>        -0.0769
     27 C21        -0.4310    1.2764    5.0504 C.ar      1 <0>        -0.1280
     28 C22         0.4311    1.9099    5.9283 C.ar      1 <0>        -0.0917
     29 C23         1.1976    1.1698    6.8115 C.ar      1 <0>        -0.1240
     30 C24         1.1030   -0.2059    6.8266 C.ar      1 <0>        -0.0450
     31 C25         5.1242   -1.3219    1.1043 C.2       1 <0>         0.4948
     32 O4          4.5210   -0.3286    1.4516 O.2       1 <0>        -0.5072
     33 C26         6.2821   -1.2042    0.1470 C.3       1 <0>         0.0768
     34 N4          6.4769    0.2025   -0.2131 N.pl3     1 <0>        -0.4003
     35 C27         5.8899    0.8619   -1.2592 C.2       1 <0>         0.0360
     36 C28         6.3426    2.1297   -1.2239 C.2       1 <0>         0.0060
     37 N5          7.1831    2.2414   -0.1846 N.pl3     1 <0>        -0.4729
     38 C29         7.2645    1.0922    0.4285 C.cat     1 <0>         0.3014
     39 H1          5.1777   -4.1626    0.3249 H         1 <0>         0.0739
     40 H2          6.5968   -3.4275    1.1084 H         1 <0>         0.0777
     41 H3          5.4815   -4.4400    2.0566 H         1 <0>         0.0918
     42 H4          2.5311   -3.7990    0.9280 H         1 <0>         0.1308
     43 H5          0.5273   -4.0152    2.3389 H         1 <0>         0.1363
     44 H6          2.4516   -1.7537    5.4171 H         1 <0>         0.1323
     45 H7          4.4586   -1.5462    4.0094 H         1 <0>         0.1239
     46 H8         -0.5034   -3.5996    4.4928 H         1 <0>         0.4209
     47 H9          0.3188   -5.3895    5.4442 H         1 <0>         0.1316
     48 H10         0.2365   -7.6656    6.3300 H         1 <0>         0.1460
     49 H11        -0.4908   -6.1262   10.2718 H         1 <0>         0.1461
     50 H12        -0.5796   -3.2862   10.2713 H         1 <0>         0.4225
     51 H13        -1.0430  -10.9168    9.0914 H         1 <0>         0.0640
     52 H14         0.0914  -11.5166    7.8579 H         1 <0>         0.1064
     53 H15         0.7103  -10.8630    9.3935 H         1 <0>         0.0636
     54 H16        -1.2050   -0.5920    4.3639 H         1 <0>         0.1223
     55 H17        -1.0257    1.8605    4.3638 H         1 <0>         0.1270
     56 H18         0.5064    2.9873    5.9239 H         1 <0>         0.1256
     57 H19         1.8682    1.6711    7.4938 H         1 <0>         0.1273
     58 H20         1.6984   -0.7819    7.5195 H         1 <0>         0.1220
     59 H21         7.1860   -1.5863    0.6213 H         1 <0>         0.1517
     60 H22         6.0707   -1.7834   -0.7519 H         1 <0>         0.1554
     61 H23         5.1972    0.4454   -1.9755 H         1 <0>         0.2224
     62 H24         6.0757    2.9183   -1.9118 H         1 <0>         0.2254
     63 H25         7.8644    0.8862    1.3026 H         1 <0>         0.2595
     64 H26         7.6533    3.0497    0.0730 H         1 <0>         0.4663
@<TRIPOS>BOND
     1    1    2 1
     2    1   39 1
     3    1   40 1
     4    1   41 1
     5    2    3 1
     6    2   31 am
     7    3    8 ar
     8    3    4 ar
     9    4    5 ar
    10    4   42 1
    11    5    6 ar
    12    5   43 1
    13    6    7 ar
    14    6    9 1
    15    7    8 ar
    16    7   44 1
    17    8   45 1
    18    9   10 1
    19    9   46 1
    20   10   11 2
    21   10   25 1
    22   11   19 1
    23   11   12 1
    24   12   17 ar
    25   12   13 ar
    26   13   14 ar
    27   13   47 1
    28   14   15 ar
    29   14   48 1
    30   15   16 ar
    31   15   21 1
    32   16   17 ar
    33   16   49 1
    34   17   18 1
    35   18   19 am
    36   18   50 1
    37   19   20 2
    38   21   22 2
    39   21   23 1
    40   23   24 1
    41   24   51 1
    42   24   52 1
    43   24   53 1
    44   25   30 ar
    45   25   26 ar
    46   26   27 ar
    47   26   54 1
    48   27   28 ar
    49   27   55 1
    50   28   29 ar
    51   28   56 1
    52   29   30 ar
    53   29   57 1
    54   30   58 1
    55   31   32 2
    56   31   33 1
    57   33   34 1
    58   33   59 1
    59   33   60 1
    60   34   38 1
    61   34   35 1
    62   35   36 2
    63   35   61 1
    64   36   37 1
    65   36   62 1
    66   37   38 2
    67   37   64 1
    68   38   63 1
@<TRIPOS>MOLECULE
CHEMBL524453__2
   64    68     0     0     0
SMALL
USER_CHARGES

@<TRIPOS>ATOM
      1 C1          5.4627   -3.6689    1.4559 C.3       1 <0>         0.0626
      2 N1          4.7112   -2.4427    1.7350 N.am      1 <0>        -0.5484
      3 C2          3.5571   -2.4935    2.5269 C.ar      1 <0>         0.0745
      4 C3          2.4295   -3.1624    2.0686 C.ar      1 <0>        -0.0690
      5 C4          1.2919   -3.2123    2.8486 C.ar      1 <0>        -0.1576
      6 C5          1.2749   -2.5937    4.0925 C.ar      1 <0>         0.2126
      7 C6          2.4032   -1.9249    4.5509 C.ar      1 <0>        -0.1626
      8 C7          3.5423   -1.8798    3.7727 C.ar      1 <0>        -0.0542
      9 N2          0.1223   -2.6436    4.8828 N.pl3     1 <0>        -0.6653
     10 C8          0.0454   -1.8988    6.0293 C.2       1 <0>         0.3170
     11 C9         -0.1671   -2.5258    7.2536 C.2       1 <0>        -0.2086
     12 C10        -0.4269   -1.8763    8.5527 C.ar      1 <0>        -0.0577
     13 C11        -0.5365   -0.5460    8.9553 C.ar      1 <0>        -0.0858
     14 C12        -0.7884   -0.2471   10.2633 C.ar      1 <0>        -0.0789
     15 C13        -0.9379   -1.2739   11.2035 C.ar      1 <0>        -0.0912
     16 C14        -0.8304   -2.6096   10.8102 C.ar      1 <0>        -0.0681
     17 C15        -0.5745   -2.9174    9.4849 C.ar      1 <0>         0.1322
     18 N3         -0.4183   -4.1255    8.8161 N.am      1 <0>        -0.6514
     19 C16        -0.1848   -3.9227    7.5087 C.2       1 <0>         0.5641
     20 O1         -0.0125   -4.7964    6.6766 O.2       1 <0>        -0.5066
     21 C17        -1.2094   -0.9437   12.6142 C.2       1 <0>         0.5074
     22 O2         -1.3395   -1.8328   13.4322 O.2       1 <0>        -0.4978
     23 O3         -1.3132    0.3444   12.9968 O.3       1 <0>        -0.3475
     24 C18        -1.5773    0.5912   14.3793 C.3       1 <0>         0.0335
     25 C19         0.1877   -0.4327    5.9668 C.ar      1 <0>        -0.0955
     26 C20         1.1208    0.2177    6.7792 C.ar      1 <0>        -0.0840
     27 C21         1.2482    1.5893    6.7153 C.ar      1 <0>        -0.1222
     28 C22         0.4549    2.3217    5.8495 C.ar      1 <0>        -0.0939
     29 C23        -0.4712    1.6849    5.0420 C.ar      1 <0>        -0.1194
     30 C24        -0.6060    0.3133    5.0907 C.ar      1 <0>        -0.0770
     31 C25         5.1305   -1.2656    1.2297 C.2       1 <0>         0.4949
     32 O4          4.5611   -0.2384    1.5326 O.2       1 <0>        -0.5087
     33 C26         6.3067   -1.2259    0.2884 C.3       1 <0>         0.0765
     34 N4          6.5615    0.1588   -0.1164 N.pl3     1 <0>        -0.3998
     35 C27         6.0168    0.8033   -1.1942 C.2       1 <0>         0.0362
     36 C28         6.5179    2.0533   -1.1948 C.2       1 <0>         0.0057
     37 N5          7.3460    2.1689   -0.1461 N.pl3     1 <0>        -0.4729
     38 C29         7.3732    1.0396    0.5073 C.cat     1 <0>         0.3011
     39 H1          5.0792   -4.1309    0.5461 H         1 <0>         0.0739
     40 H2          6.5172   -3.4267    1.3238 H         1 <0>         0.0776
     41 H3          5.3507   -4.3615    2.2901 H         1 <0>         0.0918
     42 H4          2.4427   -3.6433    1.1017 H         1 <0>         0.1302
     43 H5          0.4149   -3.7319    2.4919 H         1 <0>         0.1356
     44 H6          2.3902   -1.4437    5.5176 H         1 <0>         0.1312
     45 H7          4.4208   -1.3638    4.1309 H         1 <0>         0.1233
     46 H8         -0.6227   -3.2059    4.6188 H         1 <0>         0.4237
     47 H9         -0.4217    0.2481    8.2324 H         1 <0>         0.1424
     48 H10        -0.8723    0.7839   10.5737 H         1 <0>         0.1463
     49 H11        -0.9458   -3.3996   11.5375 H         1 <0>         0.1457
     50 H12        -0.4745   -4.9981    9.2360 H         1 <0>         0.4220
     51 H13        -0.7737    0.1701   14.9836 H         1 <0>         0.0635
     52 H14        -1.6365    1.6659   14.5517 H         1 <0>         0.1064
     53 H15        -2.5230    0.1260   14.6573 H         1 <0>         0.0638
     54 H16         1.7403   -0.3526    7.4556 H         1 <0>         0.1309
     55 H17         1.9685    2.0932    7.3427 H         1 <0>         0.1324
     56 H18         0.5589    3.3958    5.8040 H         1 <0>         0.1289
     57 H19        -1.0868    2.2630    4.3688 H         1 <0>         0.1302
     58 H20        -1.3260   -0.1828    4.4567 H         1 <0>         0.1262
     59 H21         7.1876   -1.6256    0.7906 H         1 <0>         0.1516
     60 H22         6.0868   -1.8276   -0.5935 H         1 <0>         0.1553
     61 H23         5.3195    0.3889   -1.9072 H         1 <0>         0.2222
     62 H24         6.2925    2.8270   -1.9138 H         1 <0>         0.2254
     63 H25         7.9512    0.8414    1.3979 H         1 <0>         0.2594
     64 H26         7.8433    2.9671    0.0914 H         1 <0>         0.4661
@<TRIPOS>BOND
     1    1    2 1
     2    1   39 1
     3    1   40 1
     4    1   41 1
     5    2    3 1
     6    2   31 am
     7    3    8 ar
     8    3    4 ar
     9    4    5 ar
    10    4   42 1
    11    5    6 ar
    12    5   43 1
    13    6    7 ar
    14    6    9 1
    15    7    8 ar
    16    7   44 1
    17    8   45 1
    18    9   10 1
    19    9   46 1
    20   10   11 2
    21   10   25 1
    22   11   19 1
    23   11   12 1
    24   12   17 ar
    25   12   13 ar
    26   13   14 ar
    27   13   47 1
    28   14   15 ar
    29   14   48 1
    30   15   16 ar
    31   15   21 1
    32   16   17 ar
    33   16   49 1
    34   17   18 1
    35   18   19 am
    36   18   50 1
    37   19   20 2
    38   21   22 2
    39   21   23 1
    40   23   24 1
    41   24   51 1
    42   24   52 1
    43   24   53 1
    44   25   30 ar
    45   25   26 ar
    46   26   27 ar
    47   26   54 1
    48   27   28 ar
    49   27   55 1
    50   28   29 ar
    51   28   56 1
    52   29   30 ar
    53   29   57 1
    54   30   58 1
    55   31   32 2
    56   31   33 1
    57   33   34 1
    58   33   59 1
    59   33   60 1
    60   34   38 1
    61   34   35 1
    62   35   36 2
    63   35   61 1
    64   36   37 1
    65   36   62 1
    66   37   38 2
    67   37   64 1
    68   38   63 1
@<TRIPOS>MOLECULE
CHEMBL524453__3
   63    67     0     0     0
SMALL
USER_CHARGES

@<TRIPOS>ATOM
      1 C1          5.5547   -3.7161    1.2450 C.3       1 <0>         0.0721
      2 N1          4.7589   -2.5310    1.5745 N.am      1 <0>        -0.5694
      3 C2          3.6185   -2.6545    2.3782 C.ar      1 <0>         0.0995
      4 C3          2.5120   -3.3520    1.9110 C.ar      1 <0>        -0.0766
      5 C4          1.3879   -3.4735    2.7026 C.ar      1 <0>        -0.1579
      6 C5          1.3634   -2.8984    3.9670 C.ar      1 <0>         0.1908
      7 C6          2.4705   -2.2011    4.4344 C.ar      1 <0>        -0.1545
      8 C7          3.5963   -2.0844    3.6444 C.ar      1 <0>        -0.0583
      9 N2          0.2244   -3.0209    4.7691 N.pl3     1 <0>        -0.6767
     10 C8          0.1365   -2.3240    5.9446 C.2       1 <0>         0.3370
     11 C9         -0.0494   -3.0041    7.1447 C.2       1 <0>        -0.2273
     12 C10        -0.0389   -4.4651    7.3503 C.ar      1 <0>        -0.0523
     13 C11         0.1424   -5.5527    6.4971 C.ar      1 <0>        -0.0840
     14 C12         0.0965   -6.8241    6.9923 C.ar      1 <0>        -0.0783
     15 C13        -0.1319   -7.0398    8.3569 C.ar      1 <0>        -0.0979
     16 C14        -0.3143   -5.9570    9.2198 C.ar      1 <0>        -0.0679
     17 C15        -0.2691   -4.6660    8.7219 C.ar      1 <0>         0.1311
     18 N3         -0.4123   -3.4226    9.3256 N.am      1 <0>        -0.6527
     19 C16        -0.2822   -2.4346    8.4245 C.2       1 <0>         0.5665
     20 O1         -0.3554   -1.2422    8.6660 O.2       1 <0>        -0.4975
     21 C17        -0.1806   -8.4153    8.8845 C.2       1 <0>         0.5092
     22 O2         -0.3788   -8.6053   10.0683 O.2       1 <0>        -0.5005
     23 O3         -0.0054   -9.4622    8.0541 O.3       1 <0>        -0.3479
     24 C18        -0.0652  -10.7670    8.6336 C.3       1 <0>         0.0340
     25 C19         0.2388   -0.8532    5.9390 C.ar      1 <0>        -0.1019
     26 C20        -0.5321   -0.0989    5.0498 C.ar      1 <0>        -0.0758
     27 C21        -0.4310    1.2764    5.0504 C.ar      1 <0>        -0.1279
     28 C22         0.4311    1.9099    5.9283 C.ar      1 <0>        -0.0898
     29 C23         1.1976    1.1698    6.8115 C.ar      1 <0>        -0.1238
     30 C24         1.1030   -0.2059    6.8266 C.ar      1 <0>        -0.0435
     31 C25         5.1242   -1.3219    1.1043 C.2       1 <0>         0.4952
     32 O4          4.5210   -0.3286    1.4516 O.2       1 <0>        -0.4985
     33 C26         6.2821   -1.2042    0.1470 C.3       1 <0>         0.0913
     34 N4          6.4769    0.2025   -0.2131 N.pl3     1 <0>        -0.4504
     35 C27         5.8903    0.8618   -1.2595 C.2       1 <0>        -0.0477
     36 C28         6.3428    2.1296   -1.2240 C.2       1 <0>        -0.0249
     37 N5          7.1829    2.2415   -0.1844 N.2       1 <0>        -0.4907
     38 C29         7.2641    1.0923    0.4288 C.2       1 <0>         0.1931
     39 H1          5.1777   -4.1626    0.3249 H         1 <0>         0.0658
     40 H2          6.5968   -3.4275    1.1084 H         1 <0>         0.0775
     41 H3          5.4815   -4.4400    2.0566 H         1 <0>         0.0824
     42 H4          2.5311   -3.7990    0.9280 H         1 <0>         0.1296
     43 H5          0.5273   -4.0152    2.3389 H         1 <0>         0.1327
     44 H6          2.4516   -1.7537    5.4171 H         1 <0>         0.1295
     45 H7          4.4586   -1.5462    4.0094 H         1 <0>         0.1255
     46 H8         -0.5034   -3.5996    4.4928 H         1 <0>         0.4191
     47 H9          0.3188   -5.3895    5.4442 H         1 <0>         0.1328
     48 H10         0.2365   -7.6656    6.3300 H         1 <0>         0.1449
     49 H11        -0.4908   -6.1262   10.2718 H         1 <0>         0.1441
     50 H12        -0.5796   -3.2862   10.2713 H         1 <0>         0.4206
     51 H13         0.0914  -11.5166    7.8579 H         1 <0>         0.1054
     52 H14         0.7103  -10.8630    9.3935 H         1 <0>         0.0628
     53 H15        -1.0430  -10.9168    9.0914 H         1 <0>         0.0628
     54 H16        -1.2050   -0.5920    4.3639 H         1 <0>         0.1218
     55 H17        -1.0257    1.8605    4.3638 H         1 <0>         0.1269
     56 H18         0.5064    2.9873    5.9239 H         1 <0>         0.1260
     57 H19         1.8682    1.6711    7.4938 H         1 <0>         0.1273
     58 H20         1.6984   -0.7819    7.5195 H         1 <0>         0.1216
     59 H21         7.1860   -1.5863    0.6213 H         1 <0>         0.1259
     60 H22         6.0707   -1.7834   -0.7519 H         1 <0>         0.1246
     61 H23         5.1979    0.4452   -1.9760 H         1 <0>         0.1725
     62 H24         6.0762    2.9182   -1.9121 H         1 <0>         0.1706
     63 H25         7.8637    0.8864    1.3031 H         1 <0>         0.2025
@<TRIPOS>BOND
     1    1    2 1
     2    1   39 1
     3    1   40 1
     4    1   41 1
     5    2    3 1
     6    2   31 am
     7    3    8 ar
     8    3    4 ar
     9    4    5 ar
    10    4   42 1
    11    5    6 ar
    12    5   43 1
    13    6    7 ar
    14    6    9 1
    15    7    8 ar
    16    7   44 1
    17    8   45 1
    18    9   10 1
    19    9   46 1
    20   10   11 2
    21   10   25 1
    22   11   19 1
    23   11   12 1
    24   12   17 ar
    25   12   13 ar
    26   13   14 ar
    27   13   47 1
    28   14   15 ar
    29   14   48 1
    30   15   16 ar
    31   15   21 1
    32   16   17 ar
    33   16   49 1
    34   17   18 1
    35   18   19 am
    36   18   50 1
    37   19   20 2
    38   21   22 2
    39   21   23 1
    40   23   24 1
    41   24   51 1
    42   24   52 1
    43   24   53 1
    44   25   30 ar
    45   25   26 ar
    46   26   27 ar
    47   26   54 1
    48   27   28 ar
    49   27   55 1
    50   28   29 ar
    51   28   56 1
    52   29   30 ar
    53   29   57 1
    54   30   58 1
    55   31   32 2
    56   31   33 1
    57   33   34 1
    58   33   59 1
    59   33   60 1
    60   34   38 1
    61   34   35 1
    62   35   36 2
    63   35   61 1
    64   36   37 1
    65   36   62 1
    66   37   38 2
    67   38   63 1
@<TRIPOS>MOLECULE
CHEMBL212429
   52    56     0     0     0
SMALL
USER_CHARGES

@<TRIPOS>ATOM
      1 C1          0.0254    1.4638    0.0276 C.3       1 <0>        -0.0473
      2 N1          0.0294   -0.0052    0.0124 N.4       1 <0>        -0.3863
      3 C2         -1.3533   -0.4970    0.0337 C.3       1 <0>        -0.0031
      4 C3         -1.3571   -2.0241   -0.0637 C.3       1 <0>        -0.1638
      5 C4         -0.5876   -2.6079    1.1247 C.3       1 <0>         0.1431
      6 C5          0.8307   -2.0304    1.1352 C.3       1 <0>        -0.1625
      7 C6          0.7534   -0.5031    1.1882 C.3       1 <0>        -0.0036
      8 N2         -0.5220   -4.0658    0.9974 N.pl3     1 <0>        -0.6251
      9 C7          0.0310   -4.6710   -0.2168 C.3       1 <0>         0.0858
     10 C8         -0.9872   -4.8797    2.0346 C.ar      1 <0>         0.2250
     11 C9         -1.6290   -4.3068    3.1314 C.ar      1 <0>        -0.1896
     12 C10        -2.0892   -5.0869    4.1526 C.ar      1 <0>        -0.0083
     13 C11        -1.9188   -6.4748    4.1040 C.ar      1 <0>         0.0109
     14 C12        -1.2721   -7.0558    2.9986 C.ar      1 <0>         0.1068
     15 C13        -0.8133   -6.2523    1.9649 C.ar      1 <0>        -0.1911
     16 N3         -1.2541   -8.4173    3.2331 N.pl3     1 <0>        -0.5864
     17 C14        -1.8712   -8.6287    4.4390 C.2       1 <0>         0.3533
     18 N4         -2.2591   -7.4830    4.9448 N.2       1 <0>        -0.4473
     19 C15        -2.0697   -9.9475    5.0719 C.2       1 <0>         0.1546
     20 C16        -2.7261  -10.2020    6.3603 C.ar      1 <0>        -0.1430
     21 C17        -3.3210   -9.3830    7.3217 C.ar      1 <0>        -0.0299
     22 C18        -3.8602   -9.9384    8.4469 C.ar      1 <0>        -0.1533
     23 C19        -3.8223  -11.3125    8.6447 C.ar      1 <0>        -0.0615
     24 C20        -3.2406  -12.1396    7.7108 C.ar      1 <0>        -0.1429
     25 C21        -2.6851  -11.5943    6.5557 C.ar      1 <0>         0.1278
     26 N5         -2.0511  -12.1331    5.4649 N.pl3     1 <0>        -0.4912
     27 N6         -1.6966  -11.1075    4.5828 N.2       1 <0>        -0.2294
     28 H1         -1.8791  -13.0775    5.3256 H         1 <0>         0.4473
     29 H2          1.0517    1.8302    0.0051 H         1 <0>         0.1243
     30 H3         -0.5120    1.8346   -0.8452 H         1 <0>         0.1243
     31 H4         -0.4666    1.8164    0.9341 H         1 <0>         0.1228
     32 H5         -1.8329   -0.1916    0.9637 H         1 <0>         0.1316
     33 H6         -1.9005   -0.0782   -0.8108 H         1 <0>         0.1342
     34 H7         -2.3846   -2.3875   -0.0459 H         1 <0>         0.1179
     35 H8         -0.8779   -2.3307   -0.9935 H         1 <0>         0.0920
     36 H9         -1.0953   -2.3443    2.0526 H         1 <0>         0.1101
     37 H10         1.3670   -2.3983    2.0099 H         1 <0>         0.1168
     38 H11         1.3553   -2.3371    0.2302 H         1 <0>         0.0902
     39 H12         1.7615   -0.0888    1.1959 H         1 <0>         0.1338
     40 H13         0.2290   -0.1975    2.0935 H         1 <0>         0.1314
     41 H14         1.1043   -4.8160   -0.0940 H         1 <0>         0.0531
     42 H15        -0.4479   -5.6341   -0.3933 H         1 <0>         0.0763
     43 H16        -0.1520   -4.0131   -1.0664 H         1 <0>         0.0660
     44 H17        -1.7630   -3.2360    3.1738 H         1 <0>         0.1282
     45 H18        -2.5844   -4.6329    4.9982 H         1 <0>         0.1373
     46 H19        -0.3197   -6.6943    1.1120 H         1 <0>         0.1266
     47 H20        -3.3546   -8.3134    7.1762 H         1 <0>         0.1407
     48 H21        -4.3197   -9.3032    9.1898 H         1 <0>         0.1322
     49 H22        -4.2530  -11.7362    9.5398 H         1 <0>         0.1352
     50 H23        -3.2149  -13.2070    7.8731 H         1 <0>         0.1316
     51 H24         0.4872   -0.3306   -0.8259 H         1 <0>         0.4245
     52 H25        -0.8760   -9.0966    2.6530 H         1 <0>         0.4296
@<TRIPOS>BOND
     1    1    2 1
     2    1   29 1
     3    1   30 1
     4    1   31 1
     5    2    7 1
     6    2    3 1
     7    2   51 1
     8    3    4 1
     9    3   32 1
    10    3   33 1
    11    4    5 1
    12    4   34 1
    13    4   35 1
    14    5    6 1
    15    5    8 1
    16    5   36 1
    17    6    7 1
    18    6   37 1
    19    6   38 1
    20    7   39 1
    21    7   40 1
    22    8    9 1
    23    8   10 1
    24    9   41 1
    25    9   42 1
    26    9   43 1
    27   10   15 ar
    28   10   11 ar
    29   11   12 ar
    30   11   44 1
    31   12   13 ar
    32   12   45 1
    33   13   18 1
    34   13   14 ar
    35   14   15 ar
    36   14   16 1
    37   15   46 1
    38   16   17 1
    39   16   52 1
    40   17   18 2
    41   17   19 1
    42   19   20 1
    43   19   27 2
    44   20   21 ar
    45   20   25 ar
    46   21   22 ar
    47   21   47 1
    48   22   23 ar
    49   22   48 1
    50   23   24 ar
    51   23   49 1
    52   24   25 ar
    53   24   50 1
    54   25   26 1
    55   26   27 1
    56   26   28 1
@<TRIPOS>MOLECULE
CHEMBL212429__1
   52    56     0     0     0
SMALL
USER_CHARGES

@<TRIPOS>ATOM
      1 C1          0.0253    1.4638    0.0275 C.3       1 <0>        -0.0472
      2 N1          0.0294   -0.0052    0.0124 N.4       1 <0>        -0.3862
      3 C2         -1.3534   -0.4971    0.0337 C.3       1 <0>        -0.0031
      4 C3         -1.3571   -2.0241   -0.0637 C.3       1 <0>        -0.1641
      5 C4         -0.5876   -2.6079    1.1247 C.3       1 <0>         0.1452
      6 C5          0.8307   -2.0304    1.1352 C.3       1 <0>        -0.1628
      7 C6          0.7534   -0.5031    1.1882 C.3       1 <0>        -0.0036
      8 N2         -0.5220   -4.0658    0.9974 N.pl3     1 <0>        -0.6283
      9 C7          0.0310   -4.6710   -0.2168 C.3       1 <0>         0.0867
     10 C8         -0.9876   -4.8804    2.0355 C.ar      1 <0>         0.1953
     11 C9         -1.6292   -4.3068    3.1319 C.ar      1 <0>        -0.1625
     12 C10        -2.0925   -5.0976    4.1610 C.ar      1 <0>        -0.0611
     13 C11        -1.9213   -6.4738    4.1084 C.ar      1 <0>         0.0177
     14 C12        -1.2757   -7.0614    3.0064 C.ar      1 <0>         0.1005
     15 C13        -0.8137   -6.2495    1.9652 C.ar      1 <0>        -0.1383
     16 N3         -1.2508   -8.3992    3.2223 N.2       1 <0>        -0.4675
     17 C14        -1.8295   -8.6724    4.3674 C.2       1 <0>         0.3754
     18 N4         -2.2620   -7.5140    4.9555 N.pl3     1 <0>        -0.5825
     19 H1         -2.7212   -7.4369    5.8064 H         1 <0>         0.4300
     20 C15        -1.9903  -10.0250    4.9363 C.2       1 <0>         0.1490
     21 C16        -1.5364  -11.2820    4.3285 C.ar      1 <0>        -0.1415
     22 C17        -0.8733  -11.5988    3.1415 C.ar      1 <0>        -0.0302
     23 C18        -0.5839  -12.9018    2.8525 C.ar      1 <0>        -0.1526
     24 C19        -0.9438  -13.9169    3.7293 C.ar      1 <0>        -0.0616
     25 C20        -1.5981  -13.6285    4.9054 C.ar      1 <0>        -0.1420
     26 C21        -1.9027  -12.3063    5.2201 C.ar      1 <0>         0.1273
     27 N5         -2.5295  -11.7065    6.2830 N.pl3     1 <0>        -0.4894
     28 N6         -2.5602  -10.3231    6.0812 N.2       1 <0>        -0.2251
     29 H2         -2.8914  -12.1692    7.0549 H         1 <0>         0.4479
     30 H3          1.0517    1.8302    0.0051 H         1 <0>         0.1243
     31 H4         -0.5121    1.8346   -0.8452 H         1 <0>         0.1242
     32 H5         -0.4666    1.8164    0.9340 H         1 <0>         0.1222
     33 H6         -1.8329   -0.1916    0.9636 H         1 <0>         0.1304
     34 H7         -1.9005   -0.0782   -0.8109 H         1 <0>         0.1338
     35 H8         -2.3846   -2.3875   -0.0460 H         1 <0>         0.1173
     36 H9         -0.8779   -2.3307   -0.9935 H         1 <0>         0.0927
     37 H10        -1.0953   -2.3443    2.0525 H         1 <0>         0.1069
     38 H11         1.3670   -2.3983    2.0099 H         1 <0>         0.1163
     39 H12         1.3553   -2.3371    0.2303 H         1 <0>         0.0909
     40 H13         1.7615   -0.0887    1.1960 H         1 <0>         0.1334
     41 H14         0.2289   -0.1975    2.0935 H         1 <0>         0.1302
     42 H15         1.1043   -4.8160   -0.0940 H         1 <0>         0.0528
     43 H16        -0.4479   -5.6341   -0.3933 H         1 <0>         0.0782
     44 H17        -0.1520   -4.0131   -1.0664 H         1 <0>         0.0642
     45 H18        -1.7638   -3.2361    3.1753 H         1 <0>         0.1283
     46 H19        -2.5882   -4.6467    5.0080 H         1 <0>         0.1291
     47 H20        -0.3197   -6.6903    1.1120 H         1 <0>         0.1340
     48 H21        -0.5904  -10.8158    2.4536 H         1 <0>         0.1408
     49 H22        -0.0709  -13.1451    1.9338 H         1 <0>         0.1322
     50 H23        -0.7083  -14.9425    3.4859 H         1 <0>         0.1355
     51 H24        -1.8746  -14.4242    5.5813 H         1 <0>         0.1321
     52 H25         0.4872   -0.3306   -0.8259 H         1 <0>         0.4247
@<TRIPOS>BOND
     1    1    2 1
     2    1   30 1
     3    1   31 1
     4    1   32 1
     5    2    7 1
     6    2    3 1
     7    2   52 1
     8    3    4 1
     9    3   33 1
    10    3   34 1
    11    4    5 1
    12    4   35 1
    13    4   36 1
    14    5    6 1
    15    5    8 1
    16    5   37 1
    17    6    7 1
    18    6   38 1
    19    6   39 1
    20    7   40 1
    21    7   41 1
    22    8    9 1
    23    8   10 1
    24    9   42 1
    25    9   43 1
    26    9   44 1
    27   10   15 ar
    28   10   11 ar
    29   11   12 ar
    30   11   45 1
    31   12   13 ar
    32   12   46 1
    33   13   18 1
    34   13   14 ar
    35   14   15 ar
    36   14   16 1
    37   15   47 1
    38   16   17 2
    39   17   18 1
    40   17   20 1
    41   18   19 1
    42   20   21 1
    43   20   28 2
    44   21   22 ar
    45   21   26 ar
    46   22   23 ar
    47   22   48 1
    48   23   24 ar
    49   23   49 1
    50   24   25 ar
    51   24   50 1
    52   25   26 ar
    53   25   51 1
    54   26   27 1
    55   27   28 1
    56   27   29 1
@<TRIPOS>MOLECULE
CHEMBL104071
   70    74     0     0     0
SMALL
USER_CHARGES

@<TRIPOS>ATOM
      1 C1         -5.9926   -5.0390   -0.0920 C.3       1 <0>         0.0587
      2 N1         -6.9219   -4.3323   -0.9770 N.am      1 <0>        -0.5203
      3 C2         -6.8157   -2.9689   -1.1296 C.ar      1 <0>         0.2704
      4 C3         -5.8380   -2.2459   -0.4565 C.ar      1 <0>        -0.2823
      5 C4         -5.7717   -0.8724   -0.6441 C.ar      1 <0>         0.4359
      6 N2         -6.6217   -0.2440   -1.4498 N.ar      1 <0>        -0.5461
      7 C5         -7.5640   -0.8817   -2.1088 C.ar      1 <0>         0.2280
      8 C6         -7.7017   -2.2693   -1.9779 C.ar      1 <0>        -0.2286
      9 C7         -8.7105   -2.9716   -2.6787 C.2       1 <0>         0.0229
     10 C8         -8.8105   -4.3272   -2.5207 C.2       1 <0>        -0.1611
     11 C9         -7.8702   -5.0233   -1.6394 C.2       1 <0>         0.5514
     12 O1         -7.9503   -6.2308   -1.4994 O.2       1 <0>        -0.5090
     13 C10        -9.8577   -5.0868   -3.2427 C.ar      1 <0>        -0.0110
     14 C11       -11.1117   -5.2775   -2.6612 C.ar      1 <0>        -0.0074
     15 C12       -12.0835   -5.9866   -3.3396 C.ar      1 <0>        -0.1064
     16 C13       -11.8158   -6.5073   -4.5929 C.ar      1 <0>        -0.0875
     17 C14       -10.5748   -6.3219   -5.1750 C.ar      1 <0>        -0.1060
     18 C15        -9.5961   -5.6098   -4.5097 C.ar      1 <0>        -0.0074
     19 Cl1        -8.0416   -5.3721   -5.2450 Cl        1 <0>        -0.0503
     20 Cl2       -11.4495   -4.6253   -1.0882 Cl        1 <0>        -0.0518
     21 N3         -4.7994   -0.1408    0.0230 N.pl3     1 <0>        -0.6555
     22 C16        -4.7951    1.2566   -0.0598 C.ar      1 <0>         0.1269
     23 C17        -3.5921    1.9428   -0.1628 C.ar      1 <0>        -0.1046
     24 C18        -3.5888    3.3213   -0.2444 C.ar      1 <0>        -0.1293
     25 C19        -4.7865    4.0206   -0.2231 C.ar      1 <0>         0.1106
     26 C20        -5.9886    3.3360   -0.1202 C.ar      1 <0>        -0.1884
     27 C21        -5.9941    1.9572   -0.0448 C.ar      1 <0>        -0.0673
     28 O2         -4.7823    5.3781   -0.3026 O.3       1 <0>        -0.3153
     29 C22        -6.0518    6.0336   -0.2750 C.3       1 <0>         0.0605
     30 C23        -5.8469    7.5466   -0.3740 C.3       1 <0>        -0.1181
     31 C24        -7.2061    8.2483   -0.3444 C.3       1 <0>         0.0582
     32 N4         -7.0094    9.7010   -0.4394 N.3       1 <0>        -0.5384
     33 C25        -6.3280   10.2195    0.7552 C.3       1 <0>         0.0191
     34 C26        -6.0894   11.7221    0.5907 C.3       1 <0>        -0.0027
     35 N5         -7.3765   12.4050    0.4050 N.4       1 <0>        -0.3887
     36 C27        -8.0336   11.8941   -0.8053 C.3       1 <0>        -0.0025
     37 C28        -8.2884   10.3929   -0.6525 C.3       1 <0>         0.0253
     38 C29        -7.1484   13.8495    0.2652 C.3       1 <0>        -0.0459
     39 H1         -6.2227   -6.1044   -0.0997 H         1 <0>         0.1053
     40 H2         -4.9713   -4.8853   -0.4403 H         1 <0>         0.0788
     41 H3         -6.0925   -4.6530    0.9225 H         1 <0>         0.0788
     42 H4         -5.1417   -2.7445    0.2015 H         1 <0>         0.1447
     43 H5         -8.2348   -0.3332   -2.7535 H         1 <0>         0.1741
     44 H6         -9.3928   -2.4448   -3.3294 H         1 <0>         0.1459
     45 H7        -13.0544   -6.1352   -2.8905 H         1 <0>         0.1437
     46 H8        -12.5791   -7.0614   -5.1191 H         1 <0>         0.1458
     47 H9        -10.3722   -6.7311   -6.1537 H         1 <0>         0.1440
     48 H10        -4.1227   -0.5977    0.5467 H         1 <0>         0.4212
     49 H11        -2.6594    1.3985   -0.1787 H         1 <0>         0.1331
     50 H12        -2.6533    3.8551   -0.3245 H         1 <0>         0.1342
     51 H13        -6.9207    3.8813   -0.1033 H         1 <0>         0.1273
     52 H14        -6.9303    1.4240    0.0308 H         1 <0>         0.1335
     53 H15        -6.6550    5.6928   -1.1164 H         1 <0>         0.0658
     54 H16        -6.5629    5.7965    0.6581 H         1 <0>         0.0615
     55 H17        -5.2437    7.8874    0.4675 H         1 <0>         0.0748
     56 H18        -5.3358    7.7837   -1.3070 H         1 <0>         0.0886
     57 H19        -7.8094    7.9076   -1.1859 H         1 <0>         0.0933
     58 H20        -7.7173    8.0112    0.5887 H         1 <0>         0.0509
     59 H21        -6.9495   10.0439    1.6333 H         1 <0>         0.0618
     60 H22        -5.3720    9.7107    0.8781 H         1 <0>         0.1267
     61 H23        -5.5968   12.1114    1.4818 H         1 <0>         0.1363
     62 H24        -5.4567   11.8964   -0.2795 H         1 <0>         0.1383
     63 H25        -8.9825   12.4109   -0.9492 H         1 <0>         0.1365
     64 H26        -7.3909   12.0675   -1.6684 H         1 <0>         0.1382
     65 H27        -8.7626   10.0107   -1.5564 H         1 <0>         0.1247
     66 H28        -8.9422   10.2202    0.2025 H         1 <0>         0.0614
     67 H29        -6.5106   14.0346   -0.5991 H         1 <0>         0.1234
     68 H30        -8.1034   14.3564    0.1274 H         1 <0>         0.1244
     69 H31        -6.6619   14.2291    1.1638 H         1 <0>         0.1244
     70 H32        -7.9664   12.2340    1.2055 H         1 <0>         0.4224
@<TRIPOS>BOND
     1    1    2 1
     2    1   39 1
     3    1   40 1
     4    1   41 1
     5    2   11 am
     6    2    3 1
     7    3    8 ar
     8    3    4 ar
     9    4    5 ar
    10    4   42 1
    11    5    6 ar
    12    5   21 1
    13    6    7 ar
    14    7    8 ar
    15    7   43 1
    16    8    9 1
    17    9   10 2
    18    9   44 1
    19   10   11 1
    20   10   13 1
    21   11   12 2
    22   13   18 ar
    23   13   14 ar
    24   14   15 ar
    25   14   20 1
    26   15   16 ar
    27   15   45 1
    28   16   17 ar
    29   16   46 1
    30   17   18 ar
    31   17   47 1
    32   18   19 1
    33   21   22 1
    34   21   48 1
    35   22   27 ar
    36   22   23 ar
    37   23   24 ar
    38   23   49 1
    39   24   25 ar
    40   24   50 1
    41   25   26 ar
    42   25   28 1
    43   26   27 ar
    44   26   51 1
    45   27   52 1
    46   28   29 1
    47   29   30 1
    48   29   53 1
    49   29   54 1
    50   30   31 1
    51   30   55 1
    52   30   56 1
    53   31   32 1
    54   31   57 1
    55   31   58 1
    56   32   37 1
    57   32   33 1
    58   33   34 1
    59   33   59 1
    60   33   60 1
    61   34   35 1
    62   34   61 1
    63   34   62 1
    64   35   36 1
    65   35   38 1
    66   35   70 1
    67   36   37 1
    68   36   63 1
    69   36   64 1
    70   37   65 1
    71   37   66 1
    72   38   67 1
    73   38   68 1
    74   38   69 1
@<TRIPOS>MOLECULE
CHEMBL104071__1
   70    74     0     0     0
SMALL
USER_CHARGES

@<TRIPOS>ATOM
      1 C1         -5.9926   -5.0390   -0.0920 C.3       1 <0>         0.0583
      2 N1         -6.9219   -4.3323   -0.9770 N.am      1 <0>        -0.5202
      3 C2         -6.8157   -2.9689   -1.1296 C.ar      1 <0>         0.2703
      4 C3         -5.8380   -2.2459   -0.4565 C.ar      1 <0>        -0.2802
      5 C4         -5.7717   -0.8724   -0.6441 C.ar      1 <0>         0.4340
      6 N2         -6.6217   -0.2440   -1.4498 N.ar      1 <0>        -0.5473
      7 C5         -7.5640   -0.8817   -2.1088 C.ar      1 <0>         0.2269
      8 C6         -7.7017   -2.2693   -1.9779 C.ar      1 <0>        -0.2263
      9 C7         -8.7105   -2.9716   -2.6787 C.2       1 <0>         0.0207
     10 C8         -8.8105   -4.3272   -2.5207 C.2       1 <0>        -0.1578
     11 C9         -7.8702   -5.0233   -1.6394 C.2       1 <0>         0.5508
     12 O1         -7.9503   -6.2308   -1.4994 O.2       1 <0>        -0.5071
     13 C10        -9.8577   -5.0868   -3.2427 C.ar      1 <0>        -0.0125
     14 C11       -11.1117   -5.2775   -2.6612 C.ar      1 <0>        -0.0072
     15 C12       -12.0835   -5.9866   -3.3396 C.ar      1 <0>        -0.1062
     16 C13       -11.8158   -6.5073   -4.5929 C.ar      1 <0>        -0.0869
     17 C14       -10.5748   -6.3219   -5.1750 C.ar      1 <0>        -0.1057
     18 C15        -9.5961   -5.6098   -4.5097 C.ar      1 <0>        -0.0073
     19 Cl1        -8.0416   -5.3721   -5.2450 Cl        1 <0>        -0.0505
     20 Cl2       -11.4495   -4.6253   -1.0882 Cl        1 <0>        -0.0517
     21 N3         -4.7994   -0.1408    0.0230 N.pl3     1 <0>        -0.6567
     22 C16        -4.7951    1.2566   -0.0598 C.ar      1 <0>         0.1345
     23 C17        -3.5921    1.9428   -0.1628 C.ar      1 <0>        -0.1052
     24 C18        -3.5888    3.3213   -0.2444 C.ar      1 <0>        -0.1248
     25 C19        -4.7865    4.0206   -0.2231 C.ar      1 <0>         0.1039
     26 C20        -5.9886    3.3360   -0.1202 C.ar      1 <0>        -0.1862
     27 C21        -5.9941    1.9572   -0.0448 C.ar      1 <0>        -0.0685
     28 O2         -4.7823    5.3781   -0.3026 O.3       1 <0>        -0.3144
     29 C22        -6.0518    6.0336   -0.2750 C.3       1 <0>         0.0638
     30 C23        -5.8469    7.5466   -0.3740 C.3       1 <0>        -0.1506
     31 C24        -7.2061    8.2483   -0.3444 C.3       1 <0>        -0.0048
     32 N4         -7.0094    9.7010   -0.4394 N.4       1 <0>        -0.3854
     33 C25        -6.2981   10.1776    0.7541 C.3       1 <0>        -0.0081
     34 C26        -6.0763   11.6879    0.6468 C.3       1 <0>         0.0246
     35 N5         -7.3759   12.3638    0.5274 N.3       1 <0>        -0.5439
     36 C27        -8.1104   11.8786   -0.6496 C.3       1 <0>         0.0238
     37 C28        -8.3155   10.3667   -0.5316 C.3       1 <0>        -0.0018
     38 C29        -7.2083   13.8224    0.4789 C.3       1 <0>         0.0192
     39 H1         -6.2227   -6.1044   -0.0997 H         1 <0>         0.1058
     40 H2         -4.9713   -4.8853   -0.4403 H         1 <0>         0.0791
     41 H3         -6.0925   -4.6530    0.9225 H         1 <0>         0.0791
     42 H4         -5.1417   -2.7445    0.2015 H         1 <0>         0.1452
     43 H5         -8.2348   -0.3332   -2.7535 H         1 <0>         0.1742
     44 H6         -9.3928   -2.4448   -3.3294 H         1 <0>         0.1462
     45 H7        -13.0544   -6.1352   -2.8905 H         1 <0>         0.1441
     46 H8        -12.5791   -7.0614   -5.1191 H         1 <0>         0.1462
     47 H9        -10.3722   -6.7311   -6.1537 H         1 <0>         0.1443
     48 H10        -4.1227   -0.5977    0.5467 H         1 <0>         0.4222
     49 H11        -2.6594    1.3985   -0.1787 H         1 <0>         0.1349
     50 H12        -2.6533    3.8551   -0.3245 H         1 <0>         0.1351
     51 H13        -6.9207    3.8813   -0.1033 H         1 <0>         0.1270
     52 H14        -6.9303    1.4240    0.0308 H         1 <0>         0.1352
     53 H15        -6.6550    5.6928   -1.1164 H         1 <0>         0.0725
     54 H16        -6.5629    5.7965    0.6581 H         1 <0>         0.0719
     55 H17        -5.2437    7.8874    0.4675 H         1 <0>         0.0988
     56 H18        -5.3358    7.7837   -1.3070 H         1 <0>         0.0986
     57 H19        -7.8094    7.9076   -1.1859 H         1 <0>         0.1361
     58 H20        -7.7173    8.0112    0.5887 H         1 <0>         0.1353
     59 H21        -6.8917    9.9597    1.6419 H         1 <0>         0.1392
     60 H22        -5.3347    9.6732    0.8284 H         1 <0>         0.1379
     61 H23        -5.5617   12.0442    1.5391 H         1 <0>         0.1243
     62 H24        -5.4712   11.9050   -0.2335 H         1 <0>         0.0611
     63 H25        -9.0798   12.3740   -0.7030 H         1 <0>         0.1247
     64 H26        -7.5389   12.0988   -1.5512 H         1 <0>         0.0610
     65 H27        -8.8476   10.0026   -1.4104 H         1 <0>         0.1371
     66 H28        -8.8987   10.1479    0.3629 H         1 <0>         0.1388
     67 H29        -6.5952   14.0892   -0.3820 H         1 <0>         0.0399
     68 H30        -8.1852   14.2976    0.3905 H         1 <0>         0.0842
     69 H31        -6.7200   14.1625    1.3921 H         1 <0>         0.0847
     70 H32        -6.4651    9.9134   -1.2621 H         1 <0>         0.4218
@<TRIPOS>BOND
     1    1    2 1
     2    1   39 1
     3    1   40 1
     4    1   41 1
     5    2   11 am
     6    2    3 1
     7    3    8 ar
     8    3    4 ar
     9    4    5 ar
    10    4   42 1
    11    5    6 ar
    12    5   21 1
    13    6    7 ar
    14    7    8 ar
    15    7   43 1
    16    8    9 1
    17    9   10 2
    18    9   44 1
    19   10   11 1
    20   10   13 1
    21   11   12 2
    22   13   18 ar
    23   13   14 ar
    24   14   15 ar
    25   14   20 1
    26   15   16 ar
    27   15   45 1
    28   16   17 ar
    29   16   46 1
    30   17   18 ar
    31   17   47 1
    32   18   19 1
    33   21   22 1
    34   21   48 1
    35   22   27 ar
    36   22   23 ar
    37   23   24 ar
    38   23   49 1
    39   24   25 ar
    40   24   50 1
    41   25   26 ar
    42   25   28 1
    43   26   27 ar
    44   26   51 1
    45   27   52 1
    46   28   29 1
    47   29   30 1
    48   29   53 1
    49   29   54 1
    50   30   31 1
    51   30   55 1
    52   30   56 1
    53   31   32 1
    54   31   57 1
    55   31   58 1
    56   32   37 1
    57   32   33 1
    58   32   70 1
    59   33   34 1
    60   33   59 1
    61   33   60 1
    62   34   35 1
    63   34   61 1
    64   34   62 1
    65   35   36 1
    66   35   38 1
    67   36   37 1
    68   36   63 1
    69   36   64 1
    70   37   65 1
    71   37   66 1
    72   38   67 1
    73   38   68 1
    74   38   69 1
@<TRIPOS>MOLECULE
CHEMBL112706
   62    66     0     0     0
SMALL
USER_CHARGES

@<TRIPOS>ATOM
      1 C1          0.0501    1.2289    0.1032 C.3       1 <0>         0.0690
      2 N1         -0.0564    0.0168   -0.7127 N.am      1 <0>        -0.5058
      3 C2         -1.2835   -0.5655   -0.9067 C.ar      1 <0>         0.4662
      4 C3         -1.4036   -1.7335   -1.6905 C.ar      1 <0>        -0.2685
      5 C4         -0.2586   -2.3135   -2.2828 C.2       1 <0>         0.0229
      6 C5          0.9616   -1.7255   -2.0837 C.2       1 <0>        -0.1522
      7 C6          1.0505   -0.5115   -1.2693 C.2       1 <0>         0.5554
      8 O1          2.1316    0.0207   -1.0909 O.2       1 <0>        -0.4955
      9 C7          2.1806   -2.3093   -2.6905 C.ar      1 <0>        -0.0156
     10 C8          2.9197   -3.2671   -1.9952 C.ar      1 <0>        -0.0061
     11 C9          4.0549   -3.8078   -2.5668 C.ar      1 <0>        -0.1054
     12 C10         4.4598   -3.4014   -3.8255 C.ar      1 <0>        -0.0848
     13 C11         3.7319   -2.4520   -4.5199 C.ar      1 <0>        -0.1048
     14 C12         2.5914   -1.9080   -3.9623 C.ar      1 <0>        -0.0063
     15 Cl1         1.6753   -0.7218   -4.8384 Cl        1 <0>        -0.0499
     16 Cl2         2.4139   -3.7776   -0.4150 Cl        1 <0>        -0.0519
     17 C13        -2.6766   -2.2970   -1.8645 C.ar      1 <0>         0.2615
     18 N2         -3.7103   -1.7125   -1.2883 N.ar      1 <0>        -0.5711
     19 C14        -3.5596   -0.6136   -0.5572 C.ar      1 <0>         0.6042
     20 N3         -2.3790   -0.0456   -0.3646 N.ar      1 <0>        -0.5907
     21 N4         -4.6757   -0.0424    0.0236 N.pl3     1 <0>        -0.6309
     22 C15        -5.9150   -0.6833   -0.0647 C.ar      1 <0>         0.1757
     23 C16        -5.9830   -2.0707   -0.0608 C.ar      1 <0>        -0.1104
     24 C17        -7.2089   -2.7006   -0.1482 C.ar      1 <0>        -0.0964
     25 C18        -8.3678   -1.9517   -0.2400 C.ar      1 <0>        -0.1139
     26 C19        -8.3036   -0.5704   -0.2446 C.ar      1 <0>        -0.0704
     27 C20        -7.0815    0.0659   -0.1508 C.ar      1 <0>        -0.1440
     28 C21        -9.7037   -2.6426   -0.3357 C.3       1 <0>         0.1007
     29 N5        -10.2414   -2.8581    1.0143 N.3       1 <0>        -0.5345
     30 C22        -9.4132   -3.8124    1.7650 C.3       1 <0>         0.0198
     31 C23        -9.9713   -3.9633    3.1818 C.3       1 <0>        -0.0025
     32 N6        -11.3587   -4.4408    3.1134 N.4       1 <0>        -0.3883
     33 C24       -12.1784   -3.4656    2.3822 C.3       1 <0>        -0.0022
     34 C25       -11.6386   -3.3106    0.9588 C.3       1 <0>         0.0244
     35 C26       -11.8881   -4.6028    4.4741 C.3       1 <0>        -0.0458
     36 H1          1.0910    1.5499    0.1428 H         1 <0>         0.1024
     37 H2         -0.5572    2.0188   -0.3387 H         1 <0>         0.0810
     38 H3         -0.3042    1.0197    1.1126 H         1 <0>         0.0806
     39 H4         -0.3450   -3.2072   -2.8831 H         1 <0>         0.1519
     40 H5          4.6278   -4.5492   -2.0297 H         1 <0>         0.1449
     41 H6          5.3484   -3.8270   -4.2679 H         1 <0>         0.1471
     42 H7          4.0538   -2.1385   -5.5020 H         1 <0>         0.1452
     43 H8         -2.8080   -3.1900   -2.4575 H         1 <0>         0.1886
     44 H9         -4.5993    0.8032    0.4925 H         1 <0>         0.4282
     45 H10        -5.0782   -2.6561    0.0101 H         1 <0>         0.1380
     46 H11        -7.2625   -3.7793   -0.1452 H         1 <0>         0.1209
     47 H12        -9.2106    0.0115   -0.3167 H         1 <0>         0.1282
     48 H13        -7.0324    1.1448   -0.1496 H         1 <0>         0.1294
     49 H14       -10.3939   -2.0215   -0.9067 H         1 <0>         0.0961
     50 H15        -9.5809   -3.6034   -0.8355 H         1 <0>         0.0554
     51 H16        -9.4279   -4.7800    1.2633 H         1 <0>         0.0605
     52 H17        -8.3886   -3.4439    1.8151 H         1 <0>         0.1270
     53 H18        -9.3668   -4.6815    3.7358 H         1 <0>         0.1348
     54 H19        -9.9437   -2.9983    3.6879 H         1 <0>         0.1371
     55 H20       -13.2103   -3.8148    2.3435 H         1 <0>         0.1356
     56 H21       -12.1395   -2.5032    2.8924 H         1 <0>         0.1374
     57 H22       -12.2377   -2.5759    0.4207 H         1 <0>         0.1241
     58 H23       -11.6901   -4.2699    0.4438 H         1 <0>         0.0609
     59 H24       -11.8588   -3.6441    4.9919 H         1 <0>         0.1229
     60 H25       -12.9177   -4.9571    4.4235 H         1 <0>         0.1242
     61 H26       -11.2807   -5.3274    5.0164 H         1 <0>         0.1239
     62 H27       -11.3854   -5.3286    2.6346 H         1 <0>         0.4222
@<TRIPOS>BOND
     1    1    2 1
     2    1   36 1
     3    1   37 1
     4    1   38 1
     5    2    7 am
     6    2    3 1
     7    3   20 ar
     8    3    4 ar
     9    4    5 1
    10    4   17 ar
    11    5    6 2
    12    5   39 1
    13    6    7 1
    14    6    9 1
    15    7    8 2
    16    9   14 ar
    17    9   10 ar
    18   10   11 ar
    19   10   16 1
    20   11   12 ar
    21   11   40 1
    22   12   13 ar
    23   12   41 1
    24   13   14 ar
    25   13   42 1
    26   14   15 1
    27   17   18 ar
    28   17   43 1
    29   18   19 ar
    30   19   20 ar
    31   19   21 1
    32   21   22 1
    33   21   44 1
    34   22   27 ar
    35   22   23 ar
    36   23   24 ar
    37   23   45 1
    38   24   25 ar
    39   24   46 1
    40   25   26 ar
    41   25   28 1
    42   26   27 ar
    43   26   47 1
    44   27   48 1
    45   28   29 1
    46   28   49 1
    47   28   50 1
    48   29   34 1
    49   29   30 1
    50   30   31 1
    51   30   51 1
    52   30   52 1
    53   31   32 1
    54   31   53 1
    55   31   54 1
    56   32   33 1
    57   32   35 1
    58   32   62 1
    59   33   34 1
    60   33   55 1
    61   33   56 1
    62   34   57 1
    63   34   58 1
    64   35   59 1
    65   35   60 1
    66   35   61 1
@<TRIPOS>MOLECULE
CHEMBL112706__1
   62    66     0     0     0
SMALL
USER_CHARGES

@<TRIPOS>ATOM
      1 C1          0.0501    1.2289    0.1032 C.3       1 <0>         0.0681
      2 N1         -0.0564    0.0168   -0.7127 N.am      1 <0>        -0.5052
      3 C2         -1.2835   -0.5655   -0.9067 C.ar      1 <0>         0.4655
      4 C3         -1.4036   -1.7335   -1.6905 C.ar      1 <0>        -0.2605
      5 C4         -0.2586   -2.3135   -2.2828 C.2       1 <0>         0.0176
      6 C5          0.9616   -1.7255   -2.0837 C.2       1 <0>        -0.1442
      7 C6          1.0505   -0.5115   -1.2693 C.2       1 <0>         0.5541
      8 O1          2.1316    0.0207   -1.0909 O.2       1 <0>        -0.4911
      9 C7          2.1806   -2.3093   -2.6905 C.ar      1 <0>        -0.0190
     10 C8          2.9197   -3.2671   -1.9952 C.ar      1 <0>        -0.0057
     11 C9          4.0549   -3.8078   -2.5668 C.ar      1 <0>        -0.1047
     12 C10         4.4598   -3.4014   -3.8255 C.ar      1 <0>        -0.0834
     13 C11         3.7319   -2.4520   -4.5199 C.ar      1 <0>        -0.1044
     14 C12         2.5914   -1.9080   -3.9623 C.ar      1 <0>        -0.0058
     15 Cl1         1.6753   -0.7218   -4.8384 Cl        1 <0>        -0.0502
     16 Cl2         2.4139   -3.7776   -0.4150 Cl        1 <0>        -0.0513
     17 C13        -2.6766   -2.2970   -1.8645 C.ar      1 <0>         0.2612
     18 N2         -3.7103   -1.7125   -1.2883 N.ar      1 <0>        -0.5737
     19 C14        -3.5596   -0.6136   -0.5572 C.ar      1 <0>         0.5998
     20 N3         -2.3790   -0.0456   -0.3646 N.ar      1 <0>        -0.5856
     21 N4         -4.6757   -0.0424    0.0236 N.pl3     1 <0>        -0.6331
     22 C15        -5.9150   -0.6833   -0.0647 C.ar      1 <0>         0.2081
     23 C16        -5.9830   -2.0707   -0.0608 C.ar      1 <0>        -0.1125
     24 C17        -7.2089   -2.7006   -0.1482 C.ar      1 <0>        -0.0724
     25 C18        -8.3678   -1.9517   -0.2400 C.ar      1 <0>        -0.1857
     26 C19        -8.3036   -0.5704   -0.2446 C.ar      1 <0>        -0.0661
     27 C20        -7.0815    0.0659   -0.1508 C.ar      1 <0>        -0.1467
     28 C21        -9.7037   -2.6426   -0.3357 C.3       1 <0>         0.0490
     29 N5        -10.2414   -2.8581    1.0143 N.4       1 <0>        -0.3853
     30 C22        -9.3717   -3.7898    1.7444 C.3       1 <0>        -0.0062
     31 C23        -9.9210   -4.0000    3.1571 C.3       1 <0>         0.0257
     32 N6        -11.2855   -4.5396    3.0738 N.3       1 <0>        -0.5433
     33 C24       -12.1621   -3.6290    2.3238 C.3       1 <0>         0.0243
     34 C25       -11.5943   -3.4219    0.9180 C.3       1 <0>        -0.0025
     35 C26       -11.8278   -4.8089    4.4123 C.3       1 <0>         0.0195
     36 H1          1.0910    1.5499    0.1428 H         1 <0>         0.1037
     37 H2         -0.5572    2.0188   -0.3387 H         1 <0>         0.0815
     38 H3         -0.3042    1.0197    1.1126 H         1 <0>         0.0814
     39 H4         -0.3450   -3.2072   -2.8831 H         1 <0>         0.1538
     40 H5          4.6278   -4.5492   -2.0297 H         1 <0>         0.1457
     41 H6          5.3484   -3.8270   -4.2679 H         1 <0>         0.1478
     42 H7          4.0538   -2.1385   -5.5020 H         1 <0>         0.1458
     43 H8         -2.8080   -3.1900   -2.4575 H         1 <0>         0.1909
     44 H9         -4.5993    0.8032    0.4925 H         1 <0>         0.4314
     45 H10        -5.0782   -2.6561    0.0101 H         1 <0>         0.1475
     46 H11        -7.2625   -3.7793   -0.1452 H         1 <0>         0.1344
     47 H12        -9.2106    0.0115   -0.3167 H         1 <0>         0.1345
     48 H13        -7.0324    1.1448   -0.1496 H         1 <0>         0.1381
     49 H14       -10.3939   -2.0215   -0.9067 H         1 <0>         0.1362
     50 H15        -9.5809   -3.6034   -0.8355 H         1 <0>         0.1359
     51 H16        -9.3416   -4.7451    1.2205 H         1 <0>         0.1371
     52 H17        -8.3649   -3.3762    1.8039 H         1 <0>         0.1358
     53 H18        -9.2841   -4.7028    3.6942 H         1 <0>         0.1222
     54 H19        -9.9384   -3.0471    3.6861 H         1 <0>         0.0591
     55 H20       -13.1602   -4.0613    2.2529 H         1 <0>         0.1235
     56 H21       -12.2165   -2.6700    2.8390 H         1 <0>         0.0597
     57 H22       -12.2354   -2.7356    0.3647 H         1 <0>         0.1359
     58 H23       -11.5528   -4.3791    0.3982 H         1 <0>         0.1382
     59 H24       -11.8525   -3.8832    4.9872 H         1 <0>         0.0390
     60 H25       -12.8382   -5.2074    4.3215 H         1 <0>         0.0837
     61 H26       -11.1949   -5.5359    4.9212 H         1 <0>         0.0839
     62 H27       -10.2783   -1.9777    1.5059 H         1 <0>         0.4191
@<TRIPOS>BOND
     1    1    2 1
     2    1   36 1
     3    1   37 1
     4    1   38 1
     5    2    7 am
     6    2    3 1
     7    3   20 ar
     8    3    4 ar
     9    4    5 1
    10    4   17 ar
    11    5    6 2
    12    5   39 1
    13    6    7 1
    14    6    9 1
    15    7    8 2
    16    9   14 ar
    17    9   10 ar
    18   10   11 ar
    19   10   16 1
    20   11   12 ar
    21   11   40 1
    22   12   13 ar
    23   12   41 1
    24   13   14 ar
    25   13   42 1
    26   14   15 1
    27   17   18 ar
    28   17   43 1
    29   18   19 ar
    30   19   20 ar
    31   19   21 1
    32   21   22 1
    33   21   44 1
    34   22   27 ar
    35   22   23 ar
    36   23   24 ar
    37   23   45 1
    38   24   25 ar
    39   24   46 1
    40   25   26 ar
    41   25   28 1
    42   26   27 ar
    43   26   47 1
    44   27   48 1
    45   28   29 1
    46   28   49 1
    47   28   50 1
    48   29   34 1
    49   29   30 1
    50   29   62 1
    51   30   31 1
    52   30   51 1
    53   30   52 1
    54   31   32 1
    55   31   53 1
    56   31   54 1
    57   32   33 1
    58   32   35 1
    59   33   34 1
    60   33   55 1
    61   33   56 1
    62   34   57 1
    63   34   58 1
    64   35   59 1
    65   35   60 1
    66   35   61 1
@<TRIPOS>MOLECULE
CHEMBL425876
   75    78     0     0     0
SMALL
USER_CHARGES

@<TRIPOS>ATOM
      1 C1         -0.0187    1.5258    0.0104 C.3       1 <0>        -0.1662
      2 C2          0.0021   -0.0041    0.0020 C.3       1 <0>         0.1878
      3 C3          0.7421   -0.5109    1.2415 C.3       1 <0>        -0.1662
      4 C4         -1.4333   -0.5336    0.0129 C.3       1 <0>        -0.1554
      5 N1          0.6878   -0.4765   -1.2033 N.am      1 <0>        -0.7354
      6 C5          1.9715   -0.1323   -1.4270 C.2       1 <0>         0.6900
      7 O1          2.5604    0.5703   -0.6286 O.2       1 <0>        -0.5043
      8 N2          2.6023   -0.5669   -2.5359 N.am      1 <0>        -0.6635
      9 C6          3.9237   -0.2125   -2.7661 C.ar      1 <0>         0.4748
     10 C7          4.5674   -0.6715   -3.9350 C.ar      1 <0>        -0.1653
     11 C8          5.8870   -0.3194   -4.1691 C.ar      1 <0>         0.0435
     12 C9          6.5312    0.4892   -3.2184 C.ar      1 <0>        -0.2967
     13 C10         7.8677    0.8957   -3.3729 C.ar      1 <0>         0.2645
     14 N3          8.4056    1.6547   -2.4398 N.ar      1 <0>        -0.5679
     15 C11         7.7110    2.0355   -1.3697 C.ar      1 <0>         0.5949
     16 N4          6.4545    1.6839   -1.1733 N.ar      1 <0>        -0.5639
     17 C12         5.8198    0.9133   -2.0655 C.ar      1 <0>         0.4300
     18 N5          4.5480    0.5494   -1.8913 N.ar      1 <0>        -0.4758
     19 N6          8.3317    2.8312   -0.4257 N.pl3     1 <0>        -0.6898
     20 C13         9.7262    3.2387   -0.6138 C.3       1 <0>         0.1378
     21 C14        10.1670    4.1081    0.5655 C.3       1 <0>        -0.1315
     22 C15        11.6235    4.5336    0.3691 C.3       1 <0>         0.0605
     23 N7         12.0467    5.3683    1.5014 N.3       1 <0>        -0.5376
     24 C16        11.3158    6.6438    1.5179 C.3       1 <0>         0.0132
     25 C17        11.7432    7.4549    2.7440 C.3       1 <0>         0.0625
     26 O2         13.1605    7.6434    2.7142 O.3       1 <0>        -0.3856
     27 C18        13.9036    6.4216    2.6981 C.3       1 <0>         0.0626
     28 C19        13.4982    5.6001    1.4715 C.3       1 <0>         0.0173
     29 C20         3.8378   -1.5239   -4.9046 C.ar      1 <0>         0.0412
     30 C21         3.1393   -2.6450   -4.4612 C.ar      1 <0>        -0.1987
     31 C22         2.4583   -3.4391   -5.3696 C.ar      1 <0>         0.1775
     32 C23         2.4713   -3.1189   -6.7193 C.ar      1 <0>        -0.2967
     33 C24         3.1661   -2.0036   -7.1642 C.ar      1 <0>         0.1769
     34 C25         3.8444   -1.2022   -6.2603 C.ar      1 <0>        -0.1733
     35 O3          3.1770   -1.6940   -8.4874 O.3       1 <0>        -0.3102
     36 C26         2.4521   -2.5604   -9.3625 C.3       1 <0>         0.0250
     37 O4          1.7772   -4.5330   -4.9381 O.3       1 <0>        -0.3107
     38 C27         1.0975   -5.3066   -5.9288 C.3       1 <0>         0.0249
     39 H1          1.0039    1.9031    0.0027 H         1 <0>         0.0817
     40 H2         -0.5459    1.8868   -0.8726 H         1 <0>         0.0524
     41 H3         -0.5289    1.8773    0.9072 H         1 <0>         0.0637
     42 H4          0.2319   -0.1594    2.1383 H         1 <0>         0.0636
     43 H5          0.7568   -1.6008    1.2356 H         1 <0>         0.0529
     44 H6          1.7647   -0.1336    1.2338 H         1 <0>         0.0818
     45 H7         -1.9605   -0.1726   -0.8702 H         1 <0>         0.0619
     46 H8         -1.4185   -1.6235    0.0069 H         1 <0>         0.0624
     47 H9         -1.9435   -0.1821    0.9097 H         1 <0>         0.0763
     48 H10         0.2179   -1.0371   -1.8404 H         1 <0>         0.3943
     49 H11         2.1325   -1.1275   -3.1729 H         1 <0>         0.4166
     50 H12         6.4043   -0.6568   -5.0551 H         1 <0>         0.1545
     51 H13         8.4409    0.5926   -4.2367 H         1 <0>         0.1804
     52 H14         7.8440    3.1200    0.3615 H         1 <0>         0.4175
     53 H15        10.3593    2.3531   -0.6689 H         1 <0>         0.0714
     54 H16         9.8168    3.8081   -1.5388 H         1 <0>         0.0691
     55 H17         9.5340    4.9937    0.6206 H         1 <0>         0.0712
     56 H18        10.0765    3.5386    1.4905 H         1 <0>         0.0812
     57 H19        12.2565    3.6480    0.3140 H         1 <0>         0.0815
     58 H20        11.7140    5.1031   -0.5559 H         1 <0>         0.0404
     59 H21        11.5438    7.2057    0.6122 H         1 <0>         0.0442
     60 H22        10.2444    6.4487    1.5659 H         1 <0>         0.0892
     61 H23        11.2465    8.4250    2.7298 H         1 <0>         0.0988
     62 H24        11.4665    6.9169    3.6507 H         1 <0>         0.0606
     63 H25        14.9696    6.6445    2.6507 H         1 <0>         0.0992
     64 H26        13.6898    5.8536    3.6035 H         1 <0>         0.0607
     65 H27        14.0199    4.6431    1.4857 H         1 <0>         0.0879
     66 H28        13.7611    6.1453    0.5651 H         1 <0>         0.0444
     67 H29         3.1291   -2.8950   -3.4106 H         1 <0>         0.1356
     68 H30         1.9396   -3.7395   -7.4254 H         1 <0>         0.1377
     69 H31         4.3815   -0.3315   -6.6067 H         1 <0>         0.1383
     70 H32         2.5427   -2.2004  -10.3873 H         1 <0>         0.1047
     71 H33         2.8594   -3.5692   -9.2944 H         1 <0>         0.0572
     72 H34         1.4013   -2.5726   -9.0732 H         1 <0>         0.0568
     73 H35         0.5957   -6.1483   -5.4514 H         1 <0>         0.1047
     74 H36         0.3600   -4.6829   -6.4340 H         1 <0>         0.0573
     75 H37         1.8184   -5.6788   -6.6568 H         1 <0>         0.0572
@<TRIPOS>BOND
     1    1    2 1
     2    1   39 1
     3    1   40 1
     4    1   41 1
     5    2    3 1
     6    2    4 1
     7    2    5 1
     8    3   42 1
     9    3   43 1
    10    3   44 1
    11    4   45 1
    12    4   46 1
    13    4   47 1
    14    5    6 am
    15    5   48 1
    16    6    7 2
    17    6    8 am
    18    8    9 1
    19    8   49 1
    20    9   18 ar
    21    9   10 ar
    22   10   11 ar
    23   10   29 1
    24   11   12 ar
    25   11   50 1
    26   12   17 ar
    27   12   13 ar
    28   13   14 ar
    29   13   51 1
    30   14   15 ar
    31   15   16 ar
    32   15   19 1
    33   16   17 ar
    34   17   18 ar
    35   19   20 1
    36   19   52 1
    37   20   21 1
    38   20   53 1
    39   20   54 1
    40   21   22 1
    41   21   55 1
    42   21   56 1
    43   22   23 1
    44   22   57 1
    45   22   58 1
    46   23   28 1
    47   23   24 1
    48   24   25 1
    49   24   59 1
    50   24   60 1
    51   25   26 1
    52   25   61 1
    53   25   62 1
    54   26   27 1
    55   27   28 1
    56   27   63 1
    57   27   64 1
    58   28   65 1
    59   28   66 1
    60   29   34 ar
    61   29   30 ar
    62   30   31 ar
    63   30   67 1
    64   31   32 ar
    65   31   37 1
    66   32   33 ar
    67   32   68 1
    68   33   34 ar
    69   33   35 1
    70   34   69 1
    71   35   36 1
    72   36   70 1
    73   36   71 1
    74   36   72 1
    75   37   38 1
    76   38   73 1
    77   38   74 1
    78   38   75 1
@<TRIPOS>MOLECULE
CHEMBL425876__1
   76    79     0     0     0
SMALL
USER_CHARGES

@<TRIPOS>ATOM
      1 C1         -0.0187    1.5258    0.0104 C.3       1 <0>        -0.1658
      2 C2          0.0021   -0.0041    0.0020 C.3       1 <0>         0.1874
      3 C3          0.7421   -0.5109    1.2415 C.3       1 <0>        -0.1658
      4 C4         -1.4333   -0.5336    0.0129 C.3       1 <0>        -0.1568
      5 N1          0.6878   -0.4765   -1.2033 N.am      1 <0>        -0.7334
      6 C5          1.9715   -0.1323   -1.4270 C.2       1 <0>         0.6914
      7 O1          2.5604    0.5703   -0.6286 O.2       1 <0>        -0.5072
      8 N2          2.6023   -0.5669   -2.5359 N.am      1 <0>        -0.6620
      9 C6          3.9237   -0.2125   -2.7661 C.ar      1 <0>         0.4795
     10 C7          4.5674   -0.6715   -3.9350 C.ar      1 <0>        -0.1514
     11 C8          5.8870   -0.3194   -4.1691 C.ar      1 <0>         0.0382
     12 C9          6.5312    0.4892   -3.2184 C.ar      1 <0>        -0.2894
     13 C10         7.8677    0.8957   -3.3729 C.ar      1 <0>         0.2669
     14 N3          8.4056    1.6547   -2.4398 N.ar      1 <0>        -0.5754
     15 C11         7.7110    2.0355   -1.3697 C.ar      1 <0>         0.5891
     16 N4          6.4545    1.6839   -1.1733 N.ar      1 <0>        -0.5567
     17 C12         5.8198    0.9133   -2.0655 C.ar      1 <0>         0.4275
     18 N5          4.5480    0.5494   -1.8913 N.ar      1 <0>        -0.4757
     19 N6          8.3317    2.8312   -0.4257 N.pl3     1 <0>        -0.7016
     20 C13         9.7262    3.2387   -0.6138 C.3       1 <0>         0.1451
     21 C14        10.1670    4.1081    0.5655 C.3       1 <0>        -0.1664
     22 C15        11.6235    4.5336    0.3691 C.3       1 <0>        -0.0035
     23 N7         12.0467    5.3683    1.5014 N.4       1 <0>        -0.3853
     24 C16        11.2745    6.6184    1.5041 C.3       1 <0>        -0.0493
     25 C17        11.7171    7.4862    2.6848 C.3       1 <0>         0.0361
     26 O2         13.1219    7.7366    2.5855 O.3       1 <0>        -0.3566
     27 C18        13.9160    6.5474    2.5550 C.3       1 <0>         0.0354
     28 C19        13.4775    5.6779    1.3740 C.3       1 <0>        -0.0431
     29 C20         3.8378   -1.5239   -4.9046 C.ar      1 <0>         0.0327
     30 C21         3.1393   -2.6450   -4.4612 C.ar      1 <0>        -0.1989
     31 C22         2.4583   -3.4391   -5.3696 C.ar      1 <0>         0.1797
     32 C23         2.4713   -3.1189   -6.7194 C.ar      1 <0>        -0.2940
     33 C24         3.1661   -2.0036   -7.1642 C.ar      1 <0>         0.1788
     34 C25         3.8444   -1.2022   -6.2603 C.ar      1 <0>        -0.1726
     35 O3          3.1770   -1.6940   -8.4874 O.3       1 <0>        -0.3099
     36 C26         2.4521   -2.5604   -9.3625 C.3       1 <0>         0.0241
     37 O4          1.7772   -4.5330   -4.9381 O.3       1 <0>        -0.3101
     38 C27         1.0975   -5.3066   -5.9288 C.3       1 <0>         0.0239
     39 H1          1.0039    1.9031    0.0027 H         1 <0>         0.0800
     40 H2         -0.5459    1.8868   -0.8726 H         1 <0>         0.0534
     41 H3         -0.5289    1.8773    0.9072 H         1 <0>         0.0647
     42 H4          0.2319   -0.1594    2.1383 H         1 <0>         0.0646
     43 H5          0.7568   -1.6008    1.2356 H         1 <0>         0.0537
     44 H6          1.7647   -0.1336    1.2338 H         1 <0>         0.0801
     45 H7         -1.9605   -0.1726   -0.8702 H         1 <0>         0.0631
     46 H8         -1.4185   -1.6235    0.0069 H         1 <0>         0.0635
     47 H9         -1.9435   -0.1821    0.9097 H         1 <0>         0.0776
     48 H10         0.2179   -1.0371   -1.8404 H         1 <0>         0.3959
     49 H11         2.1325   -1.1275   -3.1729 H         1 <0>         0.4189
     50 H12         6.4043   -0.6568   -5.0551 H         1 <0>         0.1576
     51 H13         8.4409    0.5926   -4.2367 H         1 <0>         0.1829
     52 H14         7.8440    3.1200    0.3615 H         1 <0>         0.4175
     53 H15        10.3593    2.3531   -0.6689 H         1 <0>         0.0787
     54 H16         9.8168    3.8081   -1.5388 H         1 <0>         0.0785
     55 H17         9.5340    4.9937    0.6206 H         1 <0>         0.0952
     56 H18        10.0765    3.5386    1.4905 H         1 <0>         0.0962
     57 H19        12.2565    3.6480    0.3140 H         1 <0>         0.1383
     58 H20        11.7140    5.1031   -0.5559 H         1 <0>         0.1361
     59 H21        11.4494    7.1559    0.5721 H         1 <0>         0.1406
     60 H22        10.2129    6.3899    1.5986 H         1 <0>         0.1435
     61 H23        11.1764    8.4324    2.6641 H         1 <0>         0.1422
     62 H24        11.5054    6.9656    3.6188 H         1 <0>         0.0815
     63 H25        14.9666    6.8142    2.4403 H         1 <0>         0.1425
     64 H26        13.7795    5.9947    3.4845 H         1 <0>         0.0814
     65 H27        14.0512    4.7512    1.3720 H         1 <0>         0.1438
     66 H28        13.6516    6.2157    0.4421 H         1 <0>         0.1401
     67 H29         3.1291   -2.8950   -3.4106 H         1 <0>         0.1355
     68 H30         1.9396   -3.7395   -7.4254 H         1 <0>         0.1396
     69 H31         4.3815   -0.3315   -6.6067 H         1 <0>         0.1381
     70 H32         2.8594   -3.5692   -9.2944 H         1 <0>         0.0583
     71 H33         1.4013   -2.5726   -9.0732 H         1 <0>         0.0581
     72 H34         2.5427   -2.2004  -10.3873 H         1 <0>         0.1063
     73 H35         1.8184   -5.6788   -6.6568 H         1 <0>         0.0583
     74 H36         0.5957   -6.1483   -5.4514 H         1 <0>         0.1064
     75 H37         0.3600   -4.6829   -6.4340 H         1 <0>         0.0585
     76 H38        11.8855    4.8713    2.3645 H         1 <0>         0.4236
@<TRIPOS>BOND
     1    1    2 1
     2    1   39 1
     3    1   40 1
     4    1   41 1
     5    2    3 1
     6    2    4 1
     7    2    5 1
     8    3   42 1
     9    3   43 1
    10    3   44 1
    11    4   45 1
    12    4   46 1
    13    4   47 1
    14    5    6 am
    15    5   48 1
    16    6    7 2
    17    6    8 am
    18    8    9 1
    19    8   49 1
    20    9   18 ar
    21    9   10 ar
    22   10   11 ar
    23   10   29 1
    24   11   12 ar
    25   11   50 1
    26   12   17 ar
    27   12   13 ar
    28   13   14 ar
    29   13   51 1
    30   14   15 ar
    31   15   16 ar
    32   15   19 1
    33   16   17 ar
    34   17   18 ar
    35   19   20 1
    36   19   52 1
    37   20   21 1
    38   20   53 1
    39   20   54 1
    40   21   22 1
    41   21   55 1
    42   21   56 1
    43   22   23 1
    44   22   57 1
    45   22   58 1
    46   23   28 1
    47   23   24 1
    48   23   76 1
    49   24   25 1
    50   24   59 1
    51   24   60 1
    52   25   26 1
    53   25   61 1
    54   25   62 1
    55   26   27 1
    56   27   28 1
    57   27   63 1
    58   27   64 1
    59   28   65 1
    60   28   66 1
    61   29   34 ar
    62   29   30 ar
    63   30   31 ar
    64   30   67 1
    65   31   32 ar
    66   31   37 1
    67   32   33 ar
    68   32   68 1
    69   33   34 ar
    70   33   35 1
    71   34   69 1
    72   35   36 1
    73   36   70 1
    74   36   71 1
    75   36   72 1
    76   37   38 1
    77   38   73 1
    78   38   74 1
    79   38   75 1
@<TRIPOS>MOLECULE
CHEMBL419914
   64    67     0     0     0
SMALL
USER_CHARGES

@<TRIPOS>ATOM
      1 C1          0.0021    1.3103   -0.3011 C.3       1 <0>        -0.1879
      2 C2          0.0110   -0.2091   -0.1215 C.3       1 <0>        -0.0178
      3 N1         -1.3508   -0.6756    0.1712 N.4       1 <0>        -0.3848
      4 C3         -2.2101   -0.4422   -0.9972 C.3       1 <0>        -0.0148
      5 C4         -3.6568   -0.7938   -0.6447 C.3       1 <0>        -0.1892
      6 C5         -1.3210   -2.1119    0.4779 C.3       1 <0>        -0.0104
      7 C6         -0.5287   -2.3419    1.7664 C.3       1 <0>        -0.1503
      8 C7         -0.4977   -3.8378    2.0860 C.3       1 <0>         0.0638
      9 O1          0.2423   -4.0526    3.2894 O.3       1 <0>        -0.3145
     10 C8          0.3662   -5.3376    3.7169 C.ar      1 <0>         0.1013
     11 C9         -0.2084   -6.3689    2.9886 C.ar      1 <0>        -0.1851
     12 C10        -0.0830   -7.6740    3.4220 C.ar      1 <0>        -0.0729
     13 C11         0.6185   -7.9539    4.5874 C.ar      1 <0>         0.1346
     14 C12         1.1934   -6.9208    5.3160 C.ar      1 <0>        -0.1087
     15 C13         1.0719   -5.6168    4.8781 C.ar      1 <0>        -0.1232
     16 N2          0.7456   -9.2766    5.0278 N.pl3     1 <0>        -0.6539
     17 C14         0.8497  -10.3080    4.1053 C.ar      1 <0>         0.4340
     18 C15         0.8480  -11.6227    4.5513 C.ar      1 <0>        -0.2806
     19 C16         0.9527  -12.6476    3.6190 C.ar      1 <0>         0.2718
     20 C17         1.0565  -12.3033    2.2530 C.ar      1 <0>        -0.2254
     21 C18         1.1653  -13.3200    1.2750 C.2       1 <0>         0.0218
     22 C19         1.1678  -14.6292    1.6730 C.2       1 <0>        -0.1574
     23 C20         1.0585  -14.9519    3.0975 C.2       1 <0>         0.5523
     24 N3          0.9560  -13.9666    4.0110 N.am      1 <0>        -0.6274
     25 O2          1.0603  -16.1155    3.4578 O.2       1 <0>        -0.5059
     26 C21         1.2800  -15.7133    0.6694 C.ar      1 <0>        -0.0140
     27 C22         0.1311  -16.2546    0.0913 C.ar      1 <0>        -0.0072
     28 C23         0.2427  -17.2647   -0.8440 C.ar      1 <0>        -0.1061
     29 C24         1.4897  -17.7402   -1.2075 C.ar      1 <0>        -0.0865
     30 C25         2.6326  -17.2082   -0.6379 C.ar      1 <0>        -0.1057
     31 C26         2.5353  -16.1935    0.2940 C.ar      1 <0>        -0.0073
     32 Cl1         3.9710  -15.5223    1.0023 Cl        1 <0>        -0.0502
     33 Cl2        -1.4350  -15.6601    0.5470 Cl        1 <0>        -0.0515
     34 C27         1.0503  -10.9508    1.8908 C.ar      1 <0>         0.2265
     35 N4          0.9435  -10.0182    2.8120 N.ar      1 <0>        -0.5468
     36 H1          1.0245    1.6678   -0.4234 H         1 <0>         0.1068
     37 H2         -0.5812    1.5683   -1.1851 H         1 <0>         0.0808
     38 H3         -0.4435    1.7774    0.5772 H         1 <0>         0.0801
     39 H4          0.3679   -0.6811   -1.0370 H         1 <0>         0.1305
     40 H5          0.6711   -0.4734    0.7047 H         1 <0>         0.1329
     41 H6         -2.1516    0.6069   -1.2875 H         1 <0>         0.1336
     42 H7         -1.8755   -1.0674   -1.8250 H         1 <0>         0.1301
     43 H8         -3.7329   -1.8630   -0.4465 H         1 <0>         0.0803
     44 H9         -3.9603   -0.2374    0.2421 H         1 <0>         0.0802
     45 H10        -4.3080   -0.5317   -1.4786 H         1 <0>         0.1069
     46 H11        -2.3399   -2.4769    0.6079 H         1 <0>         0.1361
     47 H12        -0.8446   -2.6488   -0.3423 H         1 <0>         0.1338
     48 H13         0.4901   -1.9769    1.6365 H         1 <0>         0.0987
     49 H14        -1.0052   -1.8050    2.5867 H         1 <0>         0.0985
     50 H15        -1.5166   -4.2028    2.2159 H         1 <0>         0.0714
     51 H16        -0.0213   -4.3748    1.2657 H         1 <0>         0.0719
     52 H17        -0.7542   -6.1510    2.0825 H         1 <0>         0.1268
     53 H18        -0.5308   -8.4768    2.8550 H         1 <0>         0.1406
     54 H19         1.7391   -7.1376    6.2224 H         1 <0>         0.1349
     55 H20         1.5227   -4.8137    5.4421 H         1 <0>         0.1351
     56 H21         0.7610   -9.4721    5.9777 H         1 <0>         0.4227
     57 H22         0.7671  -11.8450    5.6050 H         1 <0>         0.1455
     58 H23         1.2448  -13.0661    0.2283 H         1 <0>         0.1469
     59 H24        -0.6457  -17.6846   -1.2922 H         1 <0>         0.1442
     60 H25         1.5715  -18.5304   -1.9391 H         1 <0>         0.1463
     61 H26         3.6032  -17.5844   -0.9256 H         1 <0>         0.1445
     62 H27         1.1293  -10.6725    0.8503 H         1 <0>         0.1749
     63 H28         0.8844  -14.1889    4.9524 H         1 <0>         0.4210
     64 H29        -1.7165   -0.1699    0.9640 H         1 <0>         0.4234
@<TRIPOS>BOND
     1    1    2 1
     2    1   36 1
     3    1   37 1
     4    1   38 1
     5    2    3 1
     6    2   39 1
     7    2   40 1
     8    3    4 1
     9    3    6 1
    10    3   64 1
    11    4    5 1
    12    4   41 1
    13    4   42 1
    14    5   43 1
    15    5   44 1
    16    5   45 1
    17    6    7 1
    18    6   46 1
    19    6   47 1
    20    7    8 1
    21    7   48 1
    22    7   49 1
    23    8    9 1
    24    8   50 1
    25    8   51 1
    26    9   10 1
    27   10   15 ar
    28   10   11 ar
    29   11   12 ar
    30   11   52 1
    31   12   13 ar
    32   12   53 1
    33   13   14 ar
    34   13   16 1
    35   14   15 ar
    36   14   54 1
    37   15   55 1
    38   16   17 1
    39   16   56 1
    40   17   35 ar
    41   17   18 ar
    42   18   19 ar
    43   18   57 1
    44   19   24 1
    45   19   20 ar
    46   20   21 1
    47   20   34 ar
    48   21   22 2
    49   21   58 1
    50   22   23 1
    51   22   26 1
    52   23   24 am
    53   23   25 2
    54   24   63 1
    55   26   31 ar
    56   26   27 ar
    57   27   28 ar
    58   27   33 1
    59   28   29 ar
    60   28   59 1
    61   29   30 ar
    62   29   60 1
    63   30   31 ar
    64   30   61 1
    65   31   32 1
    66   34   35 ar
    67   34   62 1
@<TRIPOS>MOLECULE
CHEMBL526285
   52    56     0     0     0
SMALL
USER_CHARGES

@<TRIPOS>ATOM
      1 C1          0.0377    1.5572    0.1088 C.ar      1 <0>        -0.1497
      2 C2          1.2517    2.2277    0.0587 C.ar      1 <0>        -0.0506
      3 C3          2.4370    1.5301   -0.0337 C.ar      1 <0>        -0.1602
      4 C4          2.4195    0.1396   -0.0769 C.ar      1 <0>         0.2030
      5 C5          1.1869   -0.5351   -0.0254 C.ar      1 <0>        -0.1458
      6 C6         -0.0032    0.1918    0.0678 C.ar      1 <0>        -0.0510
      7 C7          1.1755   -2.0029   -0.0713 C.2       1 <0>         0.3401
      8 C8          2.3999   -2.6679   -0.1650 C.2       1 <0>        -0.1977
      9 C9          3.6003   -1.9198   -0.2124 C.2       1 <0>         0.5622
     10 O1          4.6644   -2.5081   -0.2942 O.2       1 <0>        -0.5450
     11 N1          3.5957   -0.5772   -0.1690 N.am      1 <0>        -0.6269
     12 H1          4.4393   -0.0997   -0.2042 H         1 <0>         0.4229
     13 C10         2.4418   -4.1388   -0.2138 C.2       1 <0>         0.3598
     14 N2          3.5834   -4.8967   -0.1916 N.pl3     1 <0>        -0.5814
     15 H2          4.4936   -4.5652   -0.1416 H         1 <0>         0.4351
     16 C11         3.1948   -6.2230   -0.2536 C.ar      1 <0>         0.0491
     17 C12         3.8845   -7.4265   -0.2658 C.ar      1 <0>        -0.1070
     18 C13         3.1893   -8.6158   -0.3360 C.ar      1 <0>        -0.1019
     19 C14         1.8030   -8.6177   -0.3951 C.ar      1 <0>        -0.1239
     20 C15         1.1014   -7.4338   -0.3840 C.ar      1 <0>        -0.0747
     21 C16         1.7903   -6.2188   -0.3127 C.ar      1 <0>         0.0488
     22 N3          1.3905   -4.9234   -0.2794 N.2       1 <0>        -0.4933
     23 N4         -0.0061   -2.7020   -0.0231 N.pl3     1 <0>        -0.7444
     24 C17        -0.8713   -2.5977    1.1545 C.3       1 <0>         0.1394
     25 C18        -2.0493   -3.5632    1.0090 C.3       1 <0>        -0.1114
     26 C19        -2.9322   -3.1211   -0.1616 C.3       1 <0>        -0.1451
     27 C20        -4.1498   -4.0435   -0.2518 C.3       1 <0>        -0.0071
     28 N5         -4.9175   -3.9699    0.9971 N.4       1 <0>        -0.5055
     29 C21        -4.1005   -4.4602    2.1136 C.3       1 <0>        -0.0055
     30 C22        -2.8810   -3.5538    2.2948 C.3       1 <0>        -0.1415
     31 H3         -0.8817    2.1187    0.1854 H         1 <0>         0.1329
     32 H4          1.2679    3.3070    0.0921 H         1 <0>         0.1384
     33 H5          3.3765    2.0614   -0.0729 H         1 <0>         0.1412
     34 H6         -0.9514   -0.3236    0.1075 H         1 <0>         0.1341
     35 H7          4.9635   -7.4323   -0.2208 H         1 <0>         0.1246
     36 H8          3.7277   -9.5519   -0.3455 H         1 <0>         0.1323
     37 H9          1.2705   -9.5556   -0.4505 H         1 <0>         0.1296
     38 H10         0.0224   -7.4430   -0.4306 H         1 <0>         0.1222
     39 H11        -0.2675   -3.2648   -0.7687 H         1 <0>         0.4155
     40 H12        -0.3012   -2.8521    2.0480 H         1 <0>         0.0677
     41 H13        -1.2461   -1.5778    1.2408 H         1 <0>         0.0633
     42 H14        -1.6746   -4.5700    0.8245 H         1 <0>         0.1056
     43 H15        -3.2638   -2.0954   -0.0003 H         1 <0>         0.0908
     44 H16        -2.3625   -3.1786   -1.0892 H         1 <0>         0.1130
     45 H17        -4.7804   -3.7317   -1.0843 H         1 <0>         0.1337
     46 H18        -3.8171   -5.0689   -0.4133 H         1 <0>         0.1318
     47 H19        -5.1833   -3.0123    1.1713 H         1 <0>         0.4274
     48 H20        -4.6947   -4.4559    3.0274 H         1 <0>         0.1346
     49 H21        -3.7688   -5.4766    1.9017 H         1 <0>         0.1318
     50 H22        -2.2747   -3.9206    3.1231 H         1 <0>         0.1150
     51 H23        -3.2115   -2.5370    2.5071 H         1 <0>         0.0914
     52 H24        -5.7475   -4.5375    0.9144 H         1 <0>         0.4323
@<TRIPOS>BOND
     1    1    6 ar
     2    1    2 ar
     3    1   31 1
     4    2    3 ar
     5    2   32 1
     6    3    4 ar
     7    3   33 1
     8    4   11 1
     9    4    5 ar
    10    5    6 ar
    11    5    7 1
    12    6   34 1
    13    7    8 2
    14    7   23 1
    15    8    9 1
    16    8   13 1
    17    9   10 2
    18    9   11 am
    19   11   12 1
    20   13   22 2
    21   13   14 1
    22   14   15 1
    23   14   16 1
    24   16   21 ar
    25   16   17 ar
    26   17   18 ar
    27   17   35 1
    28   18   19 ar
    29   18   36 1
    30   19   20 ar
    31   19   37 1
    32   20   21 ar
    33   20   38 1
    34   21   22 1
    35   23   24 1
    36   23   39 1
    37   24   25 1
    38   24   40 1
    39   24   41 1
    40   25   30 1
    41   25   26 1
    42   25   42 1
    43   26   27 1
    44   26   43 1
    45   26   44 1
    46   27   28 1
    47   27   45 1
    48   27   46 1
    49   28   29 1
    50   28   47 1
    51   28   52 1
    52   29   30 1
    53   29   48 1
    54   29   49 1
    55   30   50 1
    56   30   51 1
@<TRIPOS>MOLECULE
CHEMBL209704
   73    79     0     0     0
SMALL
USER_CHARGES

@<TRIPOS>ATOM
      1 C1          0.0717    1.5339    0.0114 C.ar      1 <0>        -0.1065
      2 C2          1.2683    2.2260    0.0109 C.ar      1 <0>        -0.1229
      3 C3          2.4660    1.5359   -0.0044 C.ar      1 <0>        -0.0948
      4 C4          2.4670    0.1536   -0.0187 C.ar      1 <0>        -0.1025
      5 C5          1.2704   -0.5385   -0.0174 C.ar      1 <0>        -0.0945
      6 C6          0.0728    0.1516   -0.0035 C.ar      1 <0>        -0.1226
      7 C7          3.7727   -0.5987   -0.0364 C.3       1 <0>         0.1023
      8 O1          4.1955   -0.8505    1.3052 O.3       1 <0>        -0.3031
      9 C8          5.3641   -1.5250    1.4675 C.ar      1 <0>         0.1869
     10 C9          6.0901   -1.9300    0.3485 C.ar      1 <0>        -0.2322
     11 C10         7.2651   -2.6084    0.4928 C.ar      1 <0>         0.0126
     12 C11         7.7475   -2.9008    1.7708 C.ar      1 <0>        -0.1753
     13 C12         7.0210   -2.4951    2.9046 C.ar      1 <0>         0.1691
     14 C13         5.8262   -1.7990    2.7397 C.ar      1 <0>        -0.1872
     15 N1          7.7271   -2.9143    4.0038 N.pl3     1 <0>        -0.4887
     16 N2          8.8852   -3.5766    3.5844 N.2       1 <0>        -0.2283
     17 H1          7.4645   -2.7731    4.9268 H         1 <0>         0.4488
     18 C14         8.9407   -3.5938    2.2727 C.2       1 <0>         0.1595
     19 C15        10.0079   -4.1997    1.4522 C.2       1 <0>         0.3740
     20 N3         11.1096   -4.8462    1.9453 N.pl3     1 <0>        -0.5812
     21 H2         11.3249   -4.9851    2.8808 H         1 <0>         0.4305
     22 C16        11.8583   -5.2643    0.8590 C.ar      1 <0>         0.0176
     23 C17        13.0544   -5.9555    0.7264 C.ar      1 <0>        -0.0590
     24 C18        13.5567   -6.2273   -0.5278 C.ar      1 <0>        -0.1589
     25 C19        12.8705   -5.8117   -1.6677 C.ar      1 <0>         0.2011
     26 C20        11.6782   -5.1225   -1.5531 C.ar      1 <0>        -0.1479
     27 C21        11.1589   -4.8415   -0.2850 C.ar      1 <0>         0.1000
     28 N4         10.0407   -4.2049    0.1408 N.2       1 <0>        -0.4696
     29 N5         13.3921   -6.0934   -2.9350 N.pl3     1 <0>        -0.6356
     30 C22        12.6273   -5.7720   -4.1477 C.3       1 <0>         0.1263
     31 C23        13.5031   -4.9198   -5.0716 C.3       1 <0>        -0.1595
     32 C24        14.8215   -5.6508   -5.3353 C.3       1 <0>         0.0277
     33 C25        15.5674   -5.8536   -4.0144 C.3       1 <0>        -0.1593
     34 C26        14.7176   -6.7108   -3.0787 C.3       1 <0>         0.1284
     35 N6         15.6503   -4.8515   -6.2476 N.4       1 <0>        -0.3809
     36 C27        14.9309   -4.6515   -7.5113 C.3       1 <0>        -0.0119
     37 C28        15.7551   -3.7519   -8.4349 C.3       1 <0>        -0.1453
     38 C29        17.1058   -4.4172   -8.7143 C.3       1 <0>        -0.1393
     39 C30        17.8149   -4.6887   -7.3844 C.3       1 <0>        -0.1453
     40 C31        16.9144   -5.5536   -6.4998 C.3       1 <0>        -0.0116
     41 H3         -0.8640    2.0730    0.0278 H         1 <0>         0.1260
     42 H4          1.2675    3.3060    0.0221 H         1 <0>         0.1266
     43 H5          3.4008    2.0767   -0.0054 H         1 <0>         0.1244
     44 H6          1.2713   -1.6184   -0.0289 H         1 <0>         0.1247
     45 H7         -0.8621   -0.3891   -0.0028 H         1 <0>         0.1268
     46 H8          3.6392   -1.5458   -0.5591 H         1 <0>         0.0757
     47 H9          4.5280   -0.0037   -0.5498 H         1 <0>         0.0754
     48 H10         5.7194   -1.7053   -0.6407 H         1 <0>         0.1372
     49 H11         7.8210   -2.9192   -0.3794 H         1 <0>         0.1448
     50 H12         5.2615   -1.4783    3.6027 H         1 <0>         0.1396
     51 H13        13.5915   -6.2798    1.6055 H         1 <0>         0.1303
     52 H14        14.4877   -6.7653   -0.6281 H         1 <0>         0.1329
     53 H15        11.1495   -4.8025   -2.4387 H         1 <0>         0.1316
     54 H16        12.3467   -6.6935   -4.6578 H         1 <0>         0.0738
     55 H17        11.7308   -5.2142   -3.8771 H         1 <0>         0.1055
     56 H18        12.9834   -4.7549   -6.0154 H         1 <0>         0.0979
     57 H19        13.7077   -3.9606   -4.5960 H         1 <0>         0.0920
     58 H20        14.6148   -6.6204   -5.7882 H         1 <0>         0.1369
     59 H21        16.5169   -6.3534   -4.2059 H         1 <0>         0.0979
     60 H22        15.7526   -4.8856   -3.5488 H         1 <0>         0.0916
     61 H23        15.1997   -6.7723   -2.1031 H         1 <0>         0.1028
     62 H24        14.6113   -7.7106   -3.4997 H         1 <0>         0.0730
     63 H25        14.7693   -5.6156   -7.9934 H         1 <0>         0.1280
     64 H26        13.9685   -4.1808   -7.3105 H         1 <0>         0.1318
     65 H27        15.2201   -3.6061   -9.3733 H         1 <0>         0.1119
     66 H28        15.9171   -2.7873   -7.9538 H         1 <0>         0.0869
     67 H29        16.9466   -5.3581   -9.2412 H         1 <0>         0.0816
     68 H30        17.7188   -3.7550   -9.3257 H         1 <0>         0.0938
     69 H31        18.7522   -5.2125   -7.5719 H         1 <0>         0.1117
     70 H32        18.0196   -3.7435   -6.8815 H         1 <0>         0.0868
     71 H33        17.4163   -5.7489   -5.5521 H         1 <0>         0.1312
     72 H34        16.7105   -6.4985   -7.0034 H         1 <0>         0.1280
     73 H35        15.8428   -3.9548   -5.8269 H         1 <0>         0.4199
@<TRIPOS>BOND
     1    1    6 ar
     2    1    2 ar
     3    1   41 1
     4    2    3 ar
     5    2   42 1
     6    3    4 ar
     7    3   43 1
     8    4    5 ar
     9    4    7 1
    10    5    6 ar
    11    5   44 1
    12    6   45 1
    13    7    8 1
    14    7   46 1
    15    7   47 1
    16    8    9 1
    17    9   14 ar
    18    9   10 ar
    19   10   48 1
    20   10   11 ar
    21   11   49 1
    22   11   12 ar
    23   12   13 ar
    24   12   18 1
    25   13   15 1
    26   13   14 ar
    27   14   50 1
    28   15   16 1
    29   15   17 1
    30   16   18 2
    31   18   19 1
    32   19   28 2
    33   19   20 1
    34   20   21 1
    35   20   22 1
    36   22   27 ar
    37   22   23 ar
    38   23   24 ar
    39   23   51 1
    40   24   25 ar
    41   24   52 1
    42   25   26 ar
    43   25   29 1
    44   26   27 ar
    45   26   53 1
    46   27   28 1
    47   29   34 1
    48   29   30 1
    49   30   31 1
    50   30   54 1
    51   30   55 1
    52   31   32 1
    53   31   56 1
    54   31   57 1
    55   32   33 1
    56   32   35 1
    57   32   58 1
    58   33   34 1
    59   33   59 1
    60   33   60 1
    61   34   61 1
    62   34   62 1
    63   35   40 1
    64   35   36 1
    65   35   73 1
    66   36   37 1
    67   36   63 1
    68   36   64 1
    69   37   38 1
    70   37   65 1
    71   37   66 1
    72   38   39 1
    73   38   67 1
    74   38   68 1
    75   39   40 1
    76   39   69 1
    77   39   70 1
    78   40   71 1
    79   40   72 1
@<TRIPOS>MOLECULE
CHEMBL209704__1
   73    79     0     0     0
SMALL
USER_CHARGES

@<TRIPOS>ATOM
      1 C1         -0.0097    1.3907    0.0091 C.ar      1 <0>        -0.1067
      2 C2          1.1790    2.0964    0.0185 C.ar      1 <0>        -0.1227
      3 C3          2.3845    1.4201    0.0034 C.ar      1 <0>        -0.0945
      4 C4          2.4013    0.0380   -0.0205 C.ar      1 <0>        -0.1020
      5 C5          1.2127   -0.6677   -0.0290 C.ar      1 <0>        -0.0947
      6 C6          0.0072    0.0087   -0.0153 C.ar      1 <0>        -0.1229
      7 C7          3.7155   -0.6993   -0.0379 C.3       1 <0>         0.1017
      8 O1          4.1357   -0.9556    1.3036 O.3       1 <0>        -0.3034
      9 C8          5.3113   -1.6179    1.4661 C.ar      1 <0>         0.1877
     10 C9          6.0465   -2.0068    0.3473 C.ar      1 <0>        -0.2322
     11 C10         7.2287   -2.6724    0.4918 C.ar      1 <0>         0.0131
     12 C11         7.7092   -2.9681    1.7697 C.ar      1 <0>        -0.1770
     13 C12         6.9732   -2.5791    2.9033 C.ar      1 <0>         0.1694
     14 C13         5.7712   -1.8955    2.7382 C.ar      1 <0>        -0.1887
     15 N1          7.6793   -2.9985    4.0024 N.pl3     1 <0>        -0.4907
     16 N2          8.8465   -3.6445    3.5833 N.2       1 <0>        -0.2347
     17 H1          7.4110   -2.8674    4.9253 H         1 <0>         0.4478
     18 C14         8.9080   -3.6514    2.2718 C.2       1 <0>         0.1656
     19 C15         9.9854   -4.2394    1.4516 C.2       1 <0>         0.3513
     20 N3         10.0269   -4.2295    0.1412 N.2       1 <0>        -0.4464
     21 C16        11.1526   -4.8549   -0.2840 C.ar      1 <0>         0.0104
     22 C17        11.6809   -5.1211   -1.5520 C.ar      1 <0>        -0.0063
     23 C18        12.8659   -5.7880   -1.6711 C.ar      1 <0>        -0.1867
     24 C19        13.5601   -6.2093   -0.5381 C.ar      1 <0>         0.2312
     25 C20        13.0538   -5.9559    0.7263 C.ar      1 <0>        -0.2002
     26 C21        11.8506   -5.2786    0.8610 C.ar      1 <0>         0.1069
     27 N4         11.0963   -4.8731    1.9453 N.pl3     1 <0>        -0.5868
     28 N5         14.7725   -6.8910   -0.6783 N.pl3     1 <0>        -0.6324
     29 C22        15.5780   -7.2363    0.5010 C.3       1 <0>         0.1256
     30 C23        15.8732   -8.7392    0.4736 C.3       1 <0>        -0.1596
     31 C24        16.5263   -9.1025   -0.8619 C.3       1 <0>         0.0276
     32 C25        15.5643   -8.7784   -2.0070 C.3       1 <0>        -0.1595
     33 C26        15.2626   -7.2812   -2.0074 C.3       1 <0>         0.1266
     34 N6         16.8411  -10.5373   -0.8784 N.4       1 <0>        -0.3809
     35 C27        17.7581  -10.8483    0.2247 C.3       1 <0>        -0.0118
     36 C28        18.0254  -12.3545    0.2616 C.3       1 <0>        -0.1454
     37 C29        18.6549  -12.7884   -1.0654 C.3       1 <0>        -0.1393
     38 C30        17.7235  -12.3922   -2.2146 C.3       1 <0>        -0.1453
     39 C31        17.4674  -10.8846   -2.1597 C.3       1 <0>        -0.0117
     40 H2         -0.9515    1.9190    0.0254 H         1 <0>         0.1258
     41 H3          1.1658    3.1762    0.0372 H         1 <0>         0.1266
     42 H4          3.3131    1.9714    0.0100 H         1 <0>         0.1247
     43 H5          1.2259   -1.7474   -0.0481 H         1 <0>         0.1245
     44 H6         -0.9214   -0.5427   -0.0223 H         1 <0>         0.1265
     45 H7          3.5950   -1.6442   -0.5678 H         1 <0>         0.0760
     46 H8          4.4661   -0.0921   -0.5440 H         1 <0>         0.0762
     47 H9          5.6771   -1.7797   -0.6418 H         1 <0>         0.1379
     48 H10         7.7919   -2.9704   -0.3802 H         1 <0>         0.1455
     49 H11         5.1994   -1.5874    3.6011 H         1 <0>         0.1390
     50 H12        11.1509   -4.7994   -2.4363 H         1 <0>         0.1382
     51 H13        13.2692   -5.9913   -2.6521 H         1 <0>         0.1328
     52 H14        13.5934   -6.2833    1.6027 H         1 <0>         0.1245
     53 H15        16.5148   -6.6794    0.4795 H         1 <0>         0.0752
     54 H16        15.0243   -6.9891    1.4068 H         1 <0>         0.1029
     55 H17        16.5496   -8.9920    1.2901 H         1 <0>         0.0980
     56 H18        14.9423   -9.2950    0.5865 H         1 <0>         0.0918
     57 H19        17.4444   -8.5281   -0.9853 H         1 <0>         0.1373
     58 H20        16.0208   -9.0590   -2.9562 H         1 <0>         0.0995
     59 H21        14.6363   -9.3337   -1.8709 H         1 <0>         0.0922
     60 H22        14.5008   -7.0636   -2.7560 H         1 <0>         0.1060
     61 H23        16.1730   -6.7281   -2.2380 H         1 <0>         0.0748
     62 H24        18.6979  -10.3165    0.0762 H         1 <0>         0.1282
     63 H25        17.3101  -10.5361    1.1680 H         1 <0>         0.1310
     64 H26        18.7078  -12.5832    1.0802 H         1 <0>         0.1119
     65 H27        17.0862  -12.8874    0.4102 H         1 <0>         0.0868
     66 H28        19.6185  -12.2944   -1.1903 H         1 <0>         0.0817
     67 H29        18.7953  -13.8693   -1.0660 H         1 <0>         0.0941
     68 H30        18.1902  -12.6477   -3.1659 H         1 <0>         0.1122
     69 H31        16.7781  -12.9258   -2.1173 H         1 <0>         0.0869
     70 H32        16.8048  -10.5991   -2.9767 H         1 <0>         0.1317
     71 H33        18.4134  -10.3520   -2.2573 H         1 <0>         0.1282
     72 H34        15.9906  -11.0685   -0.7661 H         1 <0>         0.4200
     73 H35        11.3113   -5.0129    2.8808 H         1 <0>         0.4288
@<TRIPOS>BOND
     1    1    6 ar
     2    1    2 ar
     3    1   40 1
     4    2    3 ar
     5    2   41 1
     6    3    4 ar
     7    3   42 1
     8    4    5 ar
     9    4    7 1
    10    5    6 ar
    11    5   43 1
    12    6   44 1
    13    7    8 1
    14    7   45 1
    15    7   46 1
    16    8    9 1
    17    9   14 ar
    18    9   10 ar
    19   10   47 1
    20   10   11 ar
    21   11   48 1
    22   11   12 ar
    23   12   13 ar
    24   12   18 1
    25   13   15 1
    26   13   14 ar
    27   14   49 1
    28   15   16 1
    29   15   17 1
    30   16   18 2
    31   18   19 1
    32   19   27 1
    33   19   20 2
    34   20   21 1
    35   21   26 ar
    36   21   22 ar
    37   22   23 ar
    38   22   50 1
    39   23   24 ar
    40   23   51 1
    41   24   25 ar
    42   24   28 1
    43   25   26 ar
    44   25   52 1
    45   26   27 1
    46   27   73 1
    47   28   33 1
    48   28   29 1
    49   29   30 1
    50   29   53 1
    51   29   54 1
    52   30   31 1
    53   30   55 1
    54   30   56 1
    55   31   32 1
    56   31   34 1
    57   31   57 1
    58   32   33 1
    59   32   58 1
    60   32   59 1
    61   33   60 1
    62   33   61 1
    63   34   39 1
    64   34   35 1
    65   34   72 1
    66   35   36 1
    67   35   62 1
    68   35   63 1
    69   36   37 1
    70   36   64 1
    71   36   65 1
    72   37   38 1
    73   37   66 1
    74   37   67 1
    75   38   39 1
    76   38   68 1
    77   38   69 1
    78   39   70 1
    79   39   71 1
@<TRIPOS>MOLECULE
CHEMBL194929
   51    54     0     0     0
SMALL
USER_CHARGES

@<TRIPOS>ATOM
      1 C1          0.5539    1.4042   -0.6913 C.3       1 <0>        -0.0757
      2 C2          0.4165   -0.0938   -0.6011 C.2       1 <0>         0.2991
      3 N1         -0.6568   -0.7395   -0.2439 N.2       1 <0>        -0.5437
      4 C3         -0.4286   -2.0648   -0.2739 C.2       1 <0>         0.3357
      5 N2          0.8086   -2.2679   -0.6558 N.2       1 <0>        -0.3256
      6 O1          1.3757   -0.9858   -0.8802 O.3       1 <0>        -0.1114
      7 C4         -1.4129   -3.1205    0.0687 C.2       1 <0>        -0.1072
      8 C5         -2.7201   -2.9216    0.4669 C.2       1 <0>         0.1374
      9 N3         -3.2927   -4.1173    0.6863 N.pl3     1 <0>        -0.2333
     10 C6         -2.3652   -5.1108    0.4337 C.2       1 <0>        -0.1112
     11 C7         -1.1887   -4.5086    0.0420 C.2       1 <0>        -0.0255
     12 C8          0.0930   -5.2041   -0.3383 C.3       1 <0>        -0.0264
     13 C9          0.4716   -4.8274   -1.7721 C.3       1 <0>        -0.1568
     14 C10         1.2097   -4.7722    0.6143 C.3       1 <0>        -0.1560
     15 C11        -2.7587   -6.4606    0.6023 C.2       1 <0>         0.5384
     16 N4         -3.9932   -6.7288    0.9937 N.2       1 <0>        -0.6235
     17 C12        -4.8755   -5.7603    1.2331 C.2       1 <0>         0.3329
     18 N5         -4.5787   -4.4974    1.0978 N.2       1 <0>        -0.3399
     19 N6         -1.8646   -7.4841    0.3606 N.pl3     1 <0>        -0.6159
     20 C13        -2.2971   -8.8156    0.4001 C.ar      1 <0>         0.1002
     21 C14        -3.6411   -9.1107    0.2524 C.ar      1 <0>        -0.0424
     22 C15        -4.0689  -10.4398    0.2919 C.ar      1 <0>        -0.1537
     23 C16        -3.1357  -11.4648    0.4805 C.ar      1 <0>         0.1846
     24 C17        -1.7957  -11.1595    0.6270 C.ar      1 <0>        -0.1740
     25 C18        -1.3734   -9.8423    0.5823 C.ar      1 <0>         0.1341
     26 F1         -0.0615   -9.5509    0.7205 F         1 <0>        -0.1194
     27 F2         -3.5440  -12.7520    0.5200 F         1 <0>        -0.0994
     28 C19        -5.5007  -10.7616    0.1355 C.2       1 <0>         0.5754
     29 O2         -5.8709  -11.9192    0.1702 O.2       1 <0>        -0.4976
     30 N7         -6.3979   -9.7723   -0.0457 N.am      1 <0>        -0.5939
     31 O3         -7.7716  -10.0811   -0.1957 O.3       1 <0>        -0.1370
     32 C20        -8.6078   -8.9370   -0.3801 C.3       1 <0>        -0.0032
     33 H1          1.5616    1.6574   -1.0208 H         1 <0>         0.0996
     34 H2         -0.1708    1.7931   -1.4066 H         1 <0>         0.1103
     35 H3          0.3703    1.8455    0.2883 H         1 <0>         0.1104
     36 H4         -3.2030   -1.9626    0.5829 H         1 <0>         0.1984
     37 H5         -0.0453   -6.2831   -0.2706 H         1 <0>         0.0621
     38 H6          0.6099   -3.7483   -1.8398 H         1 <0>         0.0850
     39 H7          1.3986   -5.3304   -2.0471 H         1 <0>         0.0673
     40 H8         -0.3239   -5.1350   -2.4507 H         1 <0>         0.0527
     41 H9          0.9399   -5.0406    1.6357 H         1 <0>         0.0531
     42 H10         2.1367   -5.2753    0.3392 H         1 <0>         0.0679
     43 H11         1.3479   -3.6931    0.5466 H         1 <0>         0.0829
     44 H12        -5.8719   -6.0301    1.5505 H         1 <0>         0.2252
     45 H13        -0.9368   -7.2812    0.1634 H         1 <0>         0.4300
     46 H14        -4.3573   -8.3155    0.1074 H         1 <0>         0.1819
     47 H15        -1.0757  -11.9512    0.7727 H         1 <0>         0.1681
     48 H16        -6.1026   -8.8488   -0.0733 H         1 <0>         0.4069
     49 H17        -9.6440   -9.2578   -0.4871 H         1 <0>         0.1167
     50 H18        -8.5186   -8.2788    0.4841 H         1 <0>         0.0590
     51 H19        -8.2985   -8.4019   -1.2779 H         1 <0>         0.0574
@<TRIPOS>BOND
     1    1    2 1
     2    1   33 1
     3    1   34 1
     4    1   35 1
     5    2    6 1
     6    2    3 2
     7    3    4 1
     8    4    5 2
     9    4    7 1
    10    5    6 1
    11    7   11 1
    12    7    8 2
    13    8    9 1
    14    8   36 1
    15    9   18 1
    16    9   10 1
    17   10   11 2
    18   10   15 1
    19   11   12 1
    20   12   13 1
    21   12   14 1
    22   12   37 1
    23   13   38 1
    24   13   39 1
    25   13   40 1
    26   14   41 1
    27   14   42 1
    28   14   43 1
    29   15   16 2
    30   15   19 1
    31   16   17 1
    32   17   18 2
    33   17   44 1
    34   19   20 1
    35   19   45 1
    36   20   25 ar
    37   20   21 ar
    38   21   22 ar
    39   21   46 1
    40   22   23 ar
    41   22   28 1
    42   23   24 ar
    43   23   27 1
    44   24   25 ar
    45   24   47 1
    46   25   26 1
    47   28   29 2
    48   28   30 am
    49   30   31 1
    50   30   48 1
    51   31   32 1
    52   32   49 1
    53   32   50 1
    54   32   51 1
@<TRIPOS>MOLECULE
CHEMBL497049
   65    69     0     0     0
SMALL
USER_CHARGES

@<TRIPOS>ATOM
      1 C1          3.7350    0.5242    1.8703 C.3       1 <0>         0.0333
      2 O1          3.2375   -0.7927    1.6246 O.3       1 <0>        -0.3469
      3 C2          3.1218   -1.1726    0.3367 C.2       1 <0>         0.5064
      4 O2          3.4349   -0.4067   -0.5532 O.2       1 <0>        -0.4962
      5 C3          2.6156   -2.5174    0.0076 C.ar      1 <0>        -0.0860
      6 C4          2.2502   -3.3956    1.0351 C.ar      1 <0>        -0.0785
      7 C5          1.7803   -4.6423    0.7372 C.ar      1 <0>        -0.0796
      8 C6          1.6631   -5.0438   -0.5927 C.ar      1 <0>        -0.0648
      9 C7          2.0258   -4.1734   -1.6345 C.ar      1 <0>         0.1333
     10 C8          2.4969   -2.9082   -1.3279 C.ar      1 <0>        -0.0684
     11 N1          1.8089   -4.8260   -2.8421 N.am      1 <0>        -0.6504
     12 C9          1.3284   -6.0640   -2.6383 C.2       1 <0>         0.5641
     13 O3          1.0453   -6.8660   -3.5112 O.2       1 <0>        -0.5070
     14 C10         1.2040   -6.2872   -1.2411 C.2       1 <0>        -0.1922
     15 C11         0.7449   -7.4410   -0.6133 C.2       1 <0>         0.3046
     16 C12         0.5203   -7.4478    0.8438 C.ar      1 <0>        -0.0990
     17 C13        -0.3341   -6.5077    1.4271 C.ar      1 <0>        -0.0861
     18 C14        -0.5397   -6.5206    2.7906 C.ar      1 <0>        -0.1201
     19 C15         0.0979   -7.4607    3.5812 C.ar      1 <0>        -0.0917
     20 C16         0.9452   -8.3946    3.0109 C.ar      1 <0>        -0.1174
     21 C17         1.1561   -8.3979    1.6481 C.ar      1 <0>        -0.0789
     22 N2          0.5017   -8.5707   -1.3491 N.pl3     1 <0>        -0.6651
     23 C18        -0.7848   -9.1140   -1.3903 C.ar      1 <0>         0.2405
     24 C19        -1.8556   -8.4093   -0.8547 C.ar      1 <0>        -0.1743
     25 C20        -3.1259   -8.9493   -0.8971 C.ar      1 <0>        -0.0504
     26 C21        -3.3328  -10.1901   -1.4718 C.ar      1 <0>        -0.2104
     27 C22        -2.2691  -10.8943   -2.0059 C.ar      1 <0>        -0.0472
     28 C23        -0.9971  -10.3577   -1.9720 C.ar      1 <0>        -0.1700
     29 C24        -4.7204  -10.7763   -1.5158 C.3       1 <0>         0.0510
     30 N3         -5.3877  -10.3623   -2.7572 N.4       1 <0>        -0.3818
     31 C25        -5.5724   -8.9062   -2.7495 C.3       1 <0>        -0.0119
     32 C26        -6.1936   -8.4600   -4.0749 C.3       1 <0>        -0.1452
     33 C27        -7.5504   -9.1472   -4.2534 C.3       1 <0>        -0.1386
     34 C28        -7.3559  -10.6647   -4.1853 C.3       1 <0>        -0.1462
     35 C29        -6.6916  -11.0292   -2.8559 C.3       1 <0>        -0.0070
     36 H1          4.7343    0.6201    1.4458 H         1 <0>         0.0643
     37 H2          3.0719    1.2553    1.4076 H         1 <0>         0.0640
     38 H3          3.7781    0.7016    2.9449 H         1 <0>         0.1075
     39 H4          2.3408   -3.0862    2.0659 H         1 <0>         0.1482
     40 H5          1.4995   -5.3176    1.5318 H         1 <0>         0.1421
     41 H6          2.7756   -2.2273   -2.1185 H         1 <0>         0.1470
     42 H7          1.9810   -4.4395   -3.7150 H         1 <0>         0.4231
     43 H8         -0.8317   -5.7730    0.8114 H         1 <0>         0.1291
     44 H9         -1.1995   -5.7949    3.2427 H         1 <0>         0.1337
     45 H10        -0.0664   -7.4655    4.6486 H         1 <0>         0.1314
     46 H11         1.4395   -9.1250    3.6342 H         1 <0>         0.1322
     47 H12         1.8144   -9.1298    1.2039 H         1 <0>         0.1260
     48 H13         1.2227   -8.9934   -1.8414 H         1 <0>         0.4251
     49 H14        -1.6948   -7.4405   -0.4054 H         1 <0>         0.1342
     50 H15        -3.9588   -8.4022   -0.4806 H         1 <0>         0.1313
     51 H16        -2.4341  -11.8631   -2.4536 H         1 <0>         0.1333
     52 H17        -0.1675  -10.9062   -2.3932 H         1 <0>         0.1372
     53 H18        -4.6565  -11.8640   -1.4829 H         1 <0>         0.1339
     54 H19        -5.2927  -10.4199   -0.6593 H         1 <0>         0.1315
     55 H20        -6.2324   -8.6284   -1.9277 H         1 <0>         0.1262
     56 H21        -4.6063   -8.4186   -2.6192 H         1 <0>         0.1305
     57 H22        -6.3315   -7.3788   -4.0665 H         1 <0>         0.1098
     58 H23        -5.5342   -8.7371   -4.8974 H         1 <0>         0.0863
     59 H24        -8.2267   -8.8305   -3.4593 H         1 <0>         0.0812
     60 H25        -7.9714   -8.8768   -5.2217 H         1 <0>         0.0929
     61 H26        -8.3246  -11.1594   -4.2559 H         1 <0>         0.1112
     62 H27        -6.7206  -10.9876   -5.0102 H         1 <0>         0.0867
     63 H28        -6.5518  -12.1089   -2.8041 H         1 <0>         0.1293
     64 H29        -7.3277  -10.7062   -2.0318 H         1 <0>         0.1276
     65 H30        -4.8172  -10.6228   -3.5476 H         1 <0>         0.4210
@<TRIPOS>BOND
     1    1    2 1
     2    1   36 1
     3    1   37 1
     4    1   38 1
     5    2    3 1
     6    3    4 2
     7    3    5 1
     8    5   10 ar
     9    5    6 ar
    10    6    7 ar
    11    6   39 1
    12    7    8 ar
    13    7   40 1
    14    8   14 1
    15    8    9 ar
    16    9   10 ar
    17    9   11 1
    18   10   41 1
    19   11   12 am
    20   11   42 1
    21   12   13 2
    22   12   14 1
    23   14   15 2
    24   15   16 1
    25   15   22 1
    26   16   21 ar
    27   16   17 ar
    28   17   18 ar
    29   17   43 1
    30   18   19 ar
    31   18   44 1
    32   19   20 ar
    33   19   45 1
    34   20   21 ar
    35   20   46 1
    36   21   47 1
    37   22   23 1
    38   22   48 1
    39   23   28 ar
    40   23   24 ar
    41   24   25 ar
    42   24   49 1
    43   25   26 ar
    44   25   50 1
    45   26   27 ar
    46   26   29 1
    47   27   28 ar
    48   27   51 1
    49   28   52 1
    50   29   30 1
    51   29   53 1
    52   29   54 1
    53   30   35 1
    54   30   31 1
    55   30   65 1
    56   31   32 1
    57   31   55 1
    58   31   56 1
    59   32   33 1
    60   32   57 1
    61   32   58 1
    62   33   34 1
    63   33   59 1
    64   33   60 1
    65   34   35 1
    66   34   61 1
    67   34   62 1
    68   35   63 1
    69   35   64 1
@<TRIPOS>MOLECULE
CHEMBL497049__1
   65    69     0     0     0
SMALL
USER_CHARGES

@<TRIPOS>ATOM
      1 C1          2.2354    1.0805   -0.7502 C.3       1 <0>         0.0331
      2 O1          1.9224   -0.3078   -0.6204 O.3       1 <0>        -0.3487
      3 C2          1.9156   -1.0417   -1.7507 C.2       1 <0>         0.5055
      4 O2          2.1684   -0.5171   -2.8173 O.2       1 <0>        -0.4940
      5 C3          1.6013   -2.4807   -1.6932 C.ar      1 <0>        -0.0868
      6 C4          1.3047   -3.0811   -0.4635 C.ar      1 <0>        -0.0816
      7 C5          1.0124   -4.4132   -0.4034 C.ar      1 <0>        -0.0806
      8 C6          1.0087   -5.1795   -1.5679 C.ar      1 <0>        -0.0682
      9 C7          1.3044   -4.5910   -2.8092 C.ar      1 <0>         0.1396
     10 C8          1.5951   -3.2386   -2.8662 C.ar      1 <0>        -0.0679
     11 N1          1.2285   -5.5758   -3.7868 N.am      1 <0>        -0.6522
     12 C9          0.9016   -6.7621   -3.2476 C.2       1 <0>         0.5639
     13 O3          0.7638   -7.8053   -3.8625 O.2       1 <0>        -0.4882
     14 C10         0.7429   -6.6043   -1.8450 C.2       1 <0>        -0.1982
     15 C11         0.4070   -7.5902   -0.9223 C.2       1 <0>         0.3089
     16 C12         0.3330   -9.0007   -1.3447 C.ar      1 <0>        -0.0991
     17 C13        -0.8136   -9.7545   -1.0782 C.ar      1 <0>        -0.0790
     18 C14        -0.8757  -11.0731   -1.4768 C.ar      1 <0>        -0.1244
     19 C15         0.1937  -11.6507   -2.1387 C.ar      1 <0>        -0.0898
     20 C16         1.3323  -10.9108   -2.4060 C.ar      1 <0>        -0.1209
     21 C17         1.4068   -9.5893   -2.0187 C.ar      1 <0>        -0.0531
     22 N2          0.1452   -7.2501    0.3787 N.pl3     1 <0>        -0.6720
     23 C18         0.9025   -7.8069    1.4123 C.ar      1 <0>         0.2309
     24 C19         2.0333   -8.5592    1.1196 C.ar      1 <0>        -0.1691
     25 C20         2.7795   -9.1082    2.1437 C.ar      1 <0>        -0.0504
     26 C21         2.4025   -8.9098    3.4594 C.ar      1 <0>        -0.2059
     27 C22         1.2775   -8.1616    3.7543 C.ar      1 <0>        -0.0475
     28 C23         0.5298   -7.6049    2.7353 C.ar      1 <0>        -0.1711
     29 C24         3.2191   -9.5109    4.5742 C.3       1 <0>         0.0496
     30 N3          4.2603   -8.5600    4.9861 N.4       1 <0>        -0.3813
     31 C25         5.1975   -8.3517    3.8758 C.3       1 <0>        -0.0124
     32 C26         6.2373   -7.3011    4.2713 C.3       1 <0>        -0.1447
     33 C27         7.0042   -7.7887    5.5039 C.3       1 <0>        -0.1392
     34 C28         6.0089   -8.0737    6.6324 C.3       1 <0>        -0.1460
     35 C29         4.9775   -9.0957    6.1494 C.3       1 <0>        -0.0073
     36 H1          3.2326    1.1898   -1.1764 H         1 <0>         0.0641
     37 H2          1.5061    1.5577   -1.4049 H         1 <0>         0.0649
     38 H3          2.2061    1.5529    0.2317 H         1 <0>         0.1069
     39 H4          1.3075   -2.4889    0.4396 H         1 <0>         0.1461
     40 H5          0.7843   -4.8736    0.5466 H         1 <0>         0.1296
     41 H6          1.8202   -2.7722   -3.8139 H         1 <0>         0.1477
     42 H7          1.3895   -5.4266   -4.7316 H         1 <0>         0.4242
     43 H8         -1.6487   -9.3053   -0.5612 H         1 <0>         0.1222
     44 H9         -1.7610  -11.6568   -1.2717 H         1 <0>         0.1292
     45 H10         0.1396  -12.6841   -2.4479 H         1 <0>         0.1284
     46 H11         2.1631  -11.3683   -2.9227 H         1 <0>         0.1291
     47 H12         2.2944   -9.0120   -2.2316 H         1 <0>         0.1207
     48 H13        -0.5661   -6.6228    0.5823 H         1 <0>         0.4230
     49 H14         2.3281   -8.7148    0.0924 H         1 <0>         0.1365
     50 H15         3.6585   -9.6933    1.9169 H         1 <0>         0.1322
     51 H16         0.9856   -8.0090    4.7829 H         1 <0>         0.1342
     52 H17        -0.3461   -7.0170    2.9665 H         1 <0>         0.1383
     53 H18         2.5705   -9.7295    5.4226 H         1 <0>         0.1345
     54 H19         3.6857  -10.4326    4.2266 H         1 <0>         0.1321
     55 H20         5.7002   -9.2907    3.6442 H         1 <0>         0.1264
     56 H21         4.6498   -8.0078    2.9983 H         1 <0>         0.1307
     57 H22         6.9333   -7.1492    3.4462 H         1 <0>         0.1100
     58 H23         5.7356   -6.3616    4.5028 H         1 <0>         0.0863
     59 H24         7.5474   -8.7011    5.2579 H         1 <0>         0.0812
     60 H25         7.7072   -7.0195    5.8236 H         1 <0>         0.0931
     61 H26         6.5416   -8.4740    7.4950 H         1 <0>         0.1113
     62 H27         5.5025   -7.1502    6.9129 H         1 <0>         0.0868
     63 H28         4.2675   -9.3010    6.9505 H         1 <0>         0.1295
     64 H29         5.4850  -10.0188    5.8693 H         1 <0>         0.1278
     65 H30         3.8324   -7.6800    5.2320 H         1 <0>         0.4207
@<TRIPOS>BOND
     1    1    2 1
     2    1   36 1
     3    1   37 1
     4    1   38 1
     5    2    3 1
     6    3    4 2
     7    3    5 1
     8    5   10 ar
     9    5    6 ar
    10    6    7 ar
    11    6   39 1
    12    7    8 ar
    13    7   40 1
    14    8   14 1
    15    8    9 ar
    16    9   10 ar
    17    9   11 1
    18   10   41 1
    19   11   12 am
    20   11   42 1
    21   12   13 2
    22   12   14 1
    23   14   15 2
    24   15   16 1
    25   15   22 1
    26   16   21 ar
    27   16   17 ar
    28   17   18 ar
    29   17   43 1
    30   18   19 ar
    31   18   44 1
    32   19   20 ar
    33   19   45 1
    34   20   21 ar
    35   20   46 1
    36   21   47 1
    37   22   23 1
    38   22   48 1
    39   23   28 ar
    40   23   24 ar
    41   24   25 ar
    42   24   49 1
    43   25   26 ar
    44   25   50 1
    45   26   27 ar
    46   26   29 1
    47   27   28 ar
    48   27   51 1
    49   28   52 1
    50   29   30 1
    51   29   53 1
    52   29   54 1
    53   30   35 1
    54   30   31 1
    55   30   65 1
    56   31   32 1
    57   31   55 1
    58   31   56 1
    59   32   33 1
    60   32   57 1
    61   32   58 1
    62   33   34 1
    63   33   59 1
    64   33   60 1
    65   34   35 1
    66   34   61 1
    67   34   62 1
    68   35   63 1
    69   35   64 1
@<TRIPOS>MOLECULE
CHEMBL193136
   52    55     0     0     0
SMALL
USER_CHARGES

@<TRIPOS>ATOM
      1 C1         -0.7158    1.3889   -0.5310 C.3       1 <0>        -0.0815
      2 C2         -0.5964   -0.1065   -0.3882 C.2       1 <0>         0.2928
      3 N1         -0.8520   -1.0124   -1.3486 N.pl3     1 <0>        -0.4849
      4 H1         -1.1448   -0.8300   -2.2552 H         1 <0>         0.4422
      5 N2         -0.6114   -2.2744   -0.7815 N.2       1 <0>        -0.2961
      6 C3         -0.2329   -2.0651    0.4602 C.2       1 <0>         0.3090
      7 N3         -0.2212   -0.7452    0.6889 N.2       1 <0>        -0.5340
      8 C4          0.1270   -3.1170    1.4441 C.2       1 <0>        -0.0828
      9 C5          0.5195   -2.9129    2.7514 C.2       1 <0>         0.1238
     10 N4          0.7593   -4.1064    3.3232 N.pl3     1 <0>        -0.2353
     11 C6          0.5255   -5.1023    2.3938 C.2       1 <0>        -0.1135
     12 C7          0.1249   -4.5042    1.2174 C.2       1 <0>        -0.0331
     13 C8         -0.2414   -5.2036   -0.0662 C.3       1 <0>        -0.0203
     14 C9         -1.6813   -4.8518   -0.4458 C.3       1 <0>        -0.1566
     15 C10         0.7046   -4.7525   -1.1808 C.3       1 <0>        -0.1556
     16 C11         0.7176   -6.4492    2.7847 C.2       1 <0>         0.5365
     17 N5          1.1124   -6.7130    4.0192 N.2       1 <0>        -0.6254
     18 C12         1.3337   -5.7422    4.9036 C.2       1 <0>         0.3285
     19 N6          1.1759   -4.4812    4.6090 N.2       1 <0>        -0.3401
     20 N7          0.4951   -7.4753    1.8881 N.pl3     1 <0>        -0.6178
     21 C13         0.5580   -8.8068    2.3180 C.ar      1 <0>         0.1029
     22 C14         0.4146   -9.1071    3.6613 C.ar      1 <0>        -0.0433
     23 C15         0.4778  -10.4361    4.0865 C.ar      1 <0>        -0.1536
     24 C16         0.6858  -11.4557    3.1515 C.ar      1 <0>         0.1827
     25 C17         0.8278  -11.1451    1.8122 C.ar      1 <0>        -0.1741
     26 C18         0.7591   -9.8282    1.3924 C.ar      1 <0>         0.1324
     27 F1          0.8932   -9.5317    0.0812 F         1 <0>        -0.1199
     28 F2          0.7483  -12.7428    3.5573 F         1 <0>        -0.1002
     29 C19         0.3262  -10.7636    5.5175 C.2       1 <0>         0.5755
     30 O1          0.3816  -11.9211    5.8855 O.2       1 <0>        -0.4984
     31 N8          0.1263   -9.7795    6.4165 N.am      1 <0>        -0.5938
     32 O2         -0.0191  -10.0937    7.7895 O.3       1 <0>        -0.1374
     33 C20        -0.2250   -8.9548    8.6278 C.3       1 <0>        -0.0032
     34 H2          0.2335    1.7978   -0.8771 H         1 <0>         0.0944
     35 H3         -1.4975    1.6236   -1.2535 H         1 <0>         0.0852
     36 H4         -0.9698    1.8270    0.4342 H         1 <0>         0.1002
     37 H5          0.6182   -1.9526    3.2356 H         1 <0>         0.1947
     38 H6         -0.1546   -6.2816    0.0699 H         1 <0>         0.0567
     39 H7         -1.7681   -3.7739   -0.5819 H         1 <0>         0.0910
     40 H8         -1.9462   -5.3578   -1.3742 H         1 <0>         0.0611
     41 H9         -2.3552   -5.1733    0.3483 H         1 <0>         0.0489
     42 H10         1.7303   -5.0031   -0.9104 H         1 <0>         0.0493
     43 H11         0.4396   -5.2584   -2.1092 H         1 <0>         0.0618
     44 H12         0.6178   -3.6745   -1.3169 H         1 <0>         0.0885
     45 H13         1.6551   -6.0082    5.8998 H         1 <0>         0.2230
     46 H14         0.2952   -7.2741    0.9605 H         1 <0>         0.4299
     47 H15         0.2545   -8.3161    4.3789 H         1 <0>         0.1822
     48 H16         0.9887  -11.9326    1.0908 H         1 <0>         0.1673
     49 H17         0.0821   -8.8560    6.1230 H         1 <0>         0.4073
     50 H18        -0.3269   -9.2795    9.6633 H         1 <0>         0.1164
     51 H19         0.6272   -8.2807    8.5406 H         1 <0>         0.0590
     52 H20        -1.1321   -8.4354    8.3188 H         1 <0>         0.0574
@<TRIPOS>BOND
     1    1    2 1
     2    1   34 1
     3    1   35 1
     4    1   36 1
     5    2    7 2
     6    2    3 1
     7    3    4 1
     8    3    5 1
     9    5    6 2
    10    6    7 1
    11    6    8 1
    12    8   12 1
    13    8    9 2
    14    9   10 1
    15    9   37 1
    16   10   19 1
    17   10   11 1
    18   11   12 2
    19   11   16 1
    20   12   13 1
    21   13   14 1
    22   13   15 1
    23   13   38 1
    24   14   39 1
    25   14   40 1
    26   14   41 1
    27   15   42 1
    28   15   43 1
    29   15   44 1
    30   16   17 2
    31   16   20 1
    32   17   18 1
    33   18   19 2
    34   18   45 1
    35   20   21 1
    36   20   46 1
    37   21   26 ar
    38   21   22 ar
    39   22   23 ar
    40   22   47 1
    41   23   24 ar
    42   23   29 1
    43   24   25 ar
    44   24   28 1
    45   25   26 ar
    46   25   48 1
    47   26   27 1
    48   29   30 2
    49   29   31 am
    50   31   32 1
    51   31   49 1
    52   32   33 1
    53   33   50 1
    54   33   51 1
    55   33   52 1
@<TRIPOS>MOLECULE
CHEMBL193136__1
   52    55     0     0     0
SMALL
USER_CHARGES

@<TRIPOS>ATOM
      1 C1         -0.8640   -0.3048    0.2490 C.3       1 <0>        -0.0630
      2 C2         -1.2380    0.6231   -0.8781 C.2       1 <0>         0.2288
      3 N1         -0.4165    1.0809   -1.7863 N.2       1 <0>        -0.3085
      4 H1         -0.8410    2.3911   -3.4144 H         1 <0>         0.4411
      5 N2         -1.1668    1.9050   -2.6408 N.pl3     1 <0>        -0.4793
      6 C3         -2.4347    1.8849   -2.1696 C.2       1 <0>         0.3693
      7 N3         -2.4578    1.1018   -1.1098 N.2       1 <0>        -0.5175
      8 C4         -3.5901    2.6077   -2.7449 C.2       1 <0>        -0.1077
      9 C5         -3.5737    3.4207   -3.8632 C.2       1 <0>         0.1017
     10 N4         -4.8132    3.8957   -4.0708 N.pl3     1 <0>        -0.2283
     11 C6         -5.6535    3.3994   -3.0916 C.2       1 <0>        -0.1116
     12 C7         -4.9110    2.5903   -2.2588 C.2       1 <0>        -0.0098
     13 C8         -5.4157    1.8348   -1.0565 C.3       1 <0>        -0.0180
     14 C9         -5.1689    0.3378   -1.2543 C.3       1 <0>        -0.1594
     15 C10        -4.6751    2.3128    0.1941 C.3       1 <0>        -0.1581
     16 C11        -7.0186    3.7755   -3.1191 C.2       1 <0>         0.5387
     17 N5         -7.4459    4.5847   -4.0739 N.2       1 <0>        -0.6243
     18 C12        -6.6238    5.0546   -5.0104 C.2       1 <0>         0.3345
     19 N6         -5.3565    4.7479   -5.0437 N.2       1 <0>        -0.3442
     20 N7         -7.8927    3.3028   -2.1610 N.pl3     1 <0>        -0.6145
     21 C13        -9.2632    3.5701   -2.2706 C.ar      1 <0>         0.0998
     22 C14        -9.8041    3.9168   -3.4963 C.ar      1 <0>        -0.0428
     23 C15       -11.1713    4.1826   -3.6020 C.ar      1 <0>        -0.1542
     24 C16       -11.9856    4.0967   -2.4677 C.ar      1 <0>         0.1847
     25 C17       -11.4355    3.7496   -1.2481 C.ar      1 <0>        -0.1741
     26 C18       -10.0817    3.4811   -1.1469 C.ar      1 <0>         0.1350
     27 F1         -9.5510    3.1370    0.0469 F         1 <0>        -0.1187
     28 F2        -13.3085    4.3532   -2.5641 F         1 <0>        -0.0995
     29 C19       -11.7548    4.5534   -4.9059 C.2       1 <0>         0.5754
     30 O1        -12.9451    4.7844   -4.9956 O.2       1 <0>        -0.4975
     31 N8        -10.9682    4.6359   -5.9972 N.am      1 <0>        -0.5940
     32 O2        -11.5280    4.9916   -7.2482 O.3       1 <0>        -0.1370
     33 C20       -10.5800    5.0406   -8.3164 C.3       1 <0>        -0.0031
     34 H2         -0.9778   -1.3383   -0.0783 H         1 <0>         0.0861
     35 H3          0.1720   -0.1270    0.5374 H         1 <0>         0.0834
     36 H4         -1.5157   -0.1203    1.1030 H         1 <0>         0.0890
     37 H5         -2.7070    3.6383   -4.4698 H         1 <0>         0.1879
     38 H6         -6.4841    2.0142   -0.9368 H         1 <0>         0.0533
     39 H7         -4.1005    0.1584   -1.3740 H         1 <0>         0.1020
     40 H8         -5.5339   -0.2086   -0.3847 H         1 <0>         0.0609
     41 H9         -5.6966   -0.0027   -2.1452 H         1 <0>         0.0435
     42 H10        -4.8508    3.3793    0.3350 H         1 <0>         0.0442
     43 H11        -5.0401    1.7664    1.0637 H         1 <0>         0.0617
     44 H12        -3.6066    2.1334    0.0744 H         1 <0>         0.0989
     45 H13        -7.0206    5.7127   -5.7693 H         1 <0>         0.2246
     46 H14        -7.5578    2.7856   -1.4118 H         1 <0>         0.4313
     47 H15        -9.1708    3.9819   -4.3687 H         1 <0>         0.1819
     48 H16       -12.0646    3.6835   -0.3728 H         1 <0>         0.1682
     49 H17       -10.0185    4.4516   -5.9256 H         1 <0>         0.4068
     50 H18        -9.8114    5.7785   -8.0865 H         1 <0>         0.0587
     51 H19       -10.1183    4.0607   -8.4376 H         1 <0>         0.0573
     52 H20       -11.0873    5.3200   -9.2398 H         1 <0>         0.1167
@<TRIPOS>BOND
     1    1   34 1
     2    1   35 1
     3    1   36 1
     4    1    2 1
     5    2    7 1
     6    2    3 2
     7    3    5 1
     8    4    5 1
     9    5    6 1
    10    6    8 1
    11    6    7 2
    12    8   12 1
    13    8    9 2
    14    9   10 1
    15    9   37 1
    16   10   19 1
    17   10   11 1
    18   11   12 2
    19   11   16 1
    20   12   13 1
    21   13   14 1
    22   13   15 1
    23   13   38 1
    24   14   39 1
    25   14   40 1
    26   14   41 1
    27   15   42 1
    28   15   43 1
    29   15   44 1
    30   16   17 2
    31   16   20 1
    32   17   18 1
    33   18   19 2
    34   18   45 1
    35   20   21 1
    36   20   46 1
    37   21   26 ar
    38   21   22 ar
    39   22   23 ar
    40   22   47 1
    41   23   24 ar
    42   23   29 1
    43   24   25 ar
    44   24   28 1
    45   25   26 ar
    46   25   48 1
    47   26   27 1
    48   29   30 2
    49   29   31 am
    50   31   32 1
    51   31   49 1
    52   32   33 1
    53   33   50 1
    54   33   51 1
    55   33   52 1
@<TRIPOS>MOLECULE
CHEMBL204985
   31    34     0     0     0
SMALL
USER_CHARGES

@<TRIPOS>ATOM
      1 C1         -0.0180    1.3848   -0.0543 C.ar      1 <0>        -0.1681
      2 C2         -1.2343    2.0492   -0.0581 C.ar      1 <0>        -0.0571
      3 C3         -2.3960    1.2915   -0.0312 C.ar      1 <0>        -0.0100
      4 N1         -3.7444    1.5962   -0.0255 N.pl3     1 <0>        -0.5751
      5 C4         -4.4230    0.4069    0.0069 C.2       1 <0>         0.4125
      6 N2         -3.5672   -0.5908    0.0210 N.2       1 <0>        -0.5261
      7 C5         -2.3061   -0.1129   -0.0011 C.ar      1 <0>         0.2651
      8 N3         -1.1109   -0.7014    0.0014 N.ar      1 <0>        -0.4539
      9 H1         -4.1356    2.4836   -0.0411 H         1 <0>         0.4379
     10 C6          0.0020    0.0004   -0.0241 C.ar      1 <0>         0.1219
     11 C7         -5.8881    0.2673    0.0243 C.2       1 <0>        -0.2918
     12 C8         -6.4745   -0.9967   -0.0699 C.2       1 <0>         0.3689
     13 C9         -7.9399   -1.0782   -0.0478 C.ar      1 <0>        -0.1096
     14 C10        -8.6146   -2.2996   -0.1362 C.ar      1 <0>        -0.0991
     15 C11        -9.9933   -2.2932   -0.1080 C.ar      1 <0>         0.0669
     16 N4        -10.6699   -1.1637   -0.0002 N.ar      1 <0>        -0.4323
     17 C12       -10.0814    0.0105    0.0860 C.ar      1 <0>         0.0804
     18 C13        -8.6928    0.1044    0.0660 C.ar      1 <0>         0.1611
     19 N5         -8.0529    1.3227    0.1554 N.am      1 <0>        -0.6287
     20 C14        -6.7121    1.4139    0.1424 C.2       1 <0>         0.5811
     21 O1         -6.1913    2.5121    0.2296 O.2       1 <0>        -0.5538
     22 N6         -5.7042   -2.1278   -0.1803 N.pl3     1 <0>        -0.7935
     23 H2          0.9068    1.9422   -0.0792 H         1 <0>         0.1453
     24 H3         -1.2766    3.1282   -0.0810 H         1 <0>         0.1358
     25 H4          0.9513   -0.5145   -0.0254 H         1 <0>         0.1662
     26 H5         -8.0684   -3.2270   -0.2249 H         1 <0>         0.1484
     27 H6        -10.5295   -3.2282   -0.1757 H         1 <0>         0.1699
     28 H7        -10.6791    0.9059    0.1723 H         1 <0>         0.1736
     29 H8         -4.7385   -2.0653   -0.1145 H         1 <0>         0.4366
     30 H9         -6.1258   -2.9896   -0.3240 H         1 <0>         0.4043
     31 H10        -8.5823    2.1317    0.2332 H         1 <0>         0.4232
@<TRIPOS>BOND
     1    1   10 ar
     2    1   23 1
     3    1    2 ar
     4    2   24 1
     5    2    3 ar
     6    3    7 ar
     7    3    4 1
     8    4    5 1
     9    4    9 1
    10    5   11 1
    11    5    6 2
    12    6    7 1
    13    7    8 ar
    14    8   10 ar
    15   10   25 1
    16   11   20 1
    17   11   12 2
    18   12   13 1
    19   12   22 1
    20   13   18 ar
    21   13   14 ar
    22   14   15 ar
    23   14   26 1
    24   15   16 ar
    25   15   27 1
    26   16   17 ar
    27   17   18 ar
    28   17   28 1
    29   18   19 1
    30   19   20 am
    31   19   31 1
    32   20   21 2
    33   22   29 1
    34   22   30 1
@<TRIPOS>MOLECULE
CHEMBL204985__1
   31    34     0     0     0
SMALL
USER_CHARGES

@<TRIPOS>ATOM
      1 C1         -0.0160    1.3767    0.0394 C.ar      1 <0>        -0.1791
      2 C2         -1.2273    2.0429    0.0213 C.ar      1 <0>        -0.0302
      3 C3         -2.4004    1.2806    0.0341 C.ar      1 <0>         0.0170
      4 N1         -3.7184    1.5931    0.0233 N.2       1 <0>        -0.5264
      5 C4         -4.4303    0.4897    0.0449 C.2       1 <0>         0.4019
      6 N2         -3.5961   -0.5982    0.0710 N.pl3     1 <0>        -0.5688
      7 C5         -2.3003   -0.1231    0.0648 C.ar      1 <0>         0.2398
      8 N3         -1.1143   -0.7085    0.0815 N.ar      1 <0>        -0.4805
      9 H1         -3.8667   -1.5295    0.0908 H         1 <0>         0.4399
     10 C6          0.0019   -0.0081    0.0694 C.ar      1 <0>         0.1316
     11 C7         -5.9016    0.4299    0.0421 C.2       1 <0>        -0.2856
     12 C8         -6.6521    1.6028    0.1422 C.2       1 <0>         0.3656
     13 C9         -8.1152    1.4857    0.1346 C.ar      1 <0>        -0.1093
     14 C10        -8.9478    2.6048    0.2298 C.ar      1 <0>        -0.0998
     15 C11       -10.3132    2.4122    0.2153 C.ar      1 <0>         0.0664
     16 N4        -10.8320    1.2014    0.1145 N.ar      1 <0>        -0.4325
     17 C12       -10.0911    0.1174    0.0224 C.ar      1 <0>         0.0806
     18 C13        -8.7026    0.2120    0.0281 C.ar      1 <0>         0.1611
     19 N5         -7.9047   -0.9087   -0.0676 N.am      1 <0>        -0.6286
     20 C14        -6.5638   -0.8176   -0.0680 C.2       1 <0>         0.5786
     21 O1         -5.9001   -1.8354   -0.1604 O.2       1 <0>        -0.5500
     22 N6         -6.0404    2.8283    0.2451 N.pl3     1 <0>        -0.7973
     23 H2          0.9101    1.9322    0.0258 H         1 <0>         0.1452
     24 H3         -1.2669    3.1219   -0.0018 H         1 <0>         0.1410
     25 H4          0.9504   -0.5246    0.0786 H         1 <0>         0.1666
     26 H5         -8.5311    3.5977    0.3132 H         1 <0>         0.1478
     27 H6        -10.9701    3.2663    0.2880 H         1 <0>         0.1696
     28 H7        -10.5632   -0.8506   -0.0581 H         1 <0>         0.1736
     29 H8         -5.0758    2.8967    0.1697 H         1 <0>         0.4345
     30 H9         -6.5731    3.6253    0.3931 H         1 <0>         0.4037
     31 H10        -8.3206   -1.7820   -0.1403 H         1 <0>         0.4233
@<TRIPOS>BOND
     1    1   10 ar
     2    1   23 1
     3    1    2 ar
     4    2   24 1
     5    2    3 ar
     6    3    7 ar
     7    3    4 1
     8    4    5 2
     9    5   11 1
    10    5    6 1
    11    6    9 1
    12    6    7 1
    13    7    8 ar
    14    8   10 ar
    15   10   25 1
    16   11   20 1
    17   11   12 2
    18   12   13 1
    19   12   22 1
    20   13   18 ar
    21   13   14 ar
    22   14   15 ar
    23   14   26 1
    24   15   16 ar
    25   15   27 1
    26   16   17 ar
    27   17   18 ar
    28   17   28 1
    29   18   19 1
    30   19   20 am
    31   19   31 1
    32   20   21 2
    33   22   29 1
    34   22   30 1
@<TRIPOS>MOLECULE
CHEMBL204985__2
   30    33     0     0     0
SMALL
USER_CHARGES

@<TRIPOS>ATOM
      1 C1         -0.0184    1.3861   -0.0689 C.ar      1 <0>        -0.2196
      2 C2         -1.2348    2.0503   -0.0690 C.ar      1 <0>        -0.0508
      3 C3         -2.3964    1.2924   -0.0405 C.ar      1 <0>        -0.0401
      4 N1         -3.7448    1.5968   -0.0313 N.2       1 <0>        -0.5379
      5 C4         -4.4231    0.4074    0.0009 C.2       1 <0>         0.2728
      6 N2         -3.5672   -0.5901    0.0116 N.2       1 <0>        -0.5878
      7 C5         -2.3061   -0.1120   -0.0127 C.ar      1 <0>         0.2008
      8 N3         -1.1109   -0.7004   -0.0136 N.ar      1 <0>        -0.4769
      9 C6          0.0018    0.0017   -0.0407 C.ar      1 <0>         0.0748
     10 C7         -5.8882    0.2675    0.0214 C.2       1 <0>        -0.1949
     11 C8         -6.4745   -0.9967   -0.0699 C.2       1 <0>         0.2881
     12 C9         -7.9398   -1.0785   -0.0448 C.ar      1 <0>        -0.0891
     13 C10        -8.6144   -2.3001   -0.1301 C.ar      1 <0>        -0.1091
     14 C11        -9.9931   -2.2939   -0.0992 C.ar      1 <0>         0.0504
     15 N4        -10.6697   -1.1644    0.0084 N.ar      1 <0>        -0.4493
     16 C12       -10.0812    0.0100    0.0918 C.ar      1 <0>         0.0663
     17 C13        -8.6928    0.1042    0.0690 C.ar      1 <0>         0.1549
     18 N5         -8.0529    1.3227    0.1553 N.am      1 <0>        -0.6396
     19 C14        -6.7121    1.4141    0.1396 C.2       1 <0>         0.5549
     20 O1         -6.1914    2.5125    0.2242 O.2       1 <0>        -0.4991
     21 N6         -5.7042   -2.1278   -0.1803 N.pl3     1 <0>        -0.8181
     22 H1          0.9062    1.9436   -0.0951 H         1 <0>         0.1125
     23 H2         -1.2773    3.1293   -0.0903 H         1 <0>         0.1070
     24 H3          0.9513   -0.5130   -0.0448 H         1 <0>         0.1341
     25 H4         -8.0682   -3.2275   -0.2187 H         1 <0>         0.1405
     26 H5        -10.5292   -3.2291   -0.1645 H         1 <0>         0.1592
     27 H6        -10.6790    0.9054    0.1782 H         1 <0>         0.1646
     28 H7         -4.7385   -2.0653   -0.1145 H         1 <0>         0.4345
     29 H8         -6.1258   -2.9896   -0.3240 H         1 <0>         0.3860
     30 H9         -8.5823    2.1317    0.2332 H         1 <0>         0.4107
@<TRIPOS>BOND
     1    1    9 ar
     2    1   22 1
     3    1    2 ar
     4    2   23 1
     5    2    3 ar
     6    3    7 ar
     7    3    4 1
     8    4    5 1
     9    5   10 1
    10    5    6 2
    11    6    7 1
    12    7    8 ar
    13    8    9 ar
    14    9   24 1
    15   10   19 1
    16   10   11 2
    17   11   12 1
    18   11   21 1
    19   12   17 ar
    20   12   13 ar
    21   13   14 ar
    22   13   25 1
    23   14   15 ar
    24   14   26 1
    25   15   16 ar
    26   16   17 ar
    27   16   27 1
    28   17   18 1
    29   18   19 am
    30   18   30 1
    31   19   20 2
    32   21   28 1
    33   21   29 1
@<TRIPOS>MOLECULE
CHEMBL436137
   66    70     0     0     0
SMALL
USER_CHARGES

@<TRIPOS>ATOM
      1 C1          0.6297    1.6950    0.0760 C.3       1 <0>        -0.1250
      2 C2          0.3918    0.2107   -0.0306 C.ar      1 <0>        -0.0594
      3 C3          0.4364   -0.4099   -1.2624 C.ar      1 <0>        -0.1249
      4 C4          0.2181   -1.7722   -1.3617 C.ar      1 <0>        -0.1004
      5 C5         -0.0458   -2.5201   -0.2284 C.ar      1 <0>        -0.1252
      6 C6         -0.0933   -1.9100    1.0086 C.ar      1 <0>        -0.0601
      7 C7          0.1319   -0.5387    1.1154 C.ar      1 <0>        -0.0684
      8 C8          0.0892    0.1216    2.4429 C.ar      1 <0>        -0.0180
      9 C9          1.0535   -0.2014    3.4120 C.ar      1 <0>        -0.0463
     10 C10         1.0373    0.3891    4.6357 C.ar      1 <0>        -0.0741
     11 C11         0.0466    1.3359    4.9434 C.ar      1 <0>         0.1888
     12 C12        -0.9337    1.6706    3.9718 C.ar      1 <0>        -0.0192
     13 C13        -0.8959    1.0533    2.7130 C.ar      1 <0>        -0.0482
     14 N1         -1.8700    2.5747    4.2813 N.ar      1 <0>        -0.1048
     15 N2         -1.8694    3.1249    5.4469 N.ar      1 <0>        -0.2892
     16 C14        -0.9559    2.8222    6.3718 C.ar      1 <0>         0.4884
     17 N3         -0.0017    1.9388    6.1373 N.ar      1 <0>        -0.4990
     18 N4         -1.0094    3.4481    7.6051 N.pl3     1 <0>        -0.6320
     19 C15        -2.0785    4.2983    7.9129 C.ar      1 <0>         0.1447
     20 C16        -3.3655    3.9710    7.5069 C.ar      1 <0>        -0.0718
     21 C17        -4.4194    4.8099    7.8113 C.ar      1 <0>        -0.1154
     22 C18        -4.1926    5.9793    8.5220 C.ar      1 <0>         0.0980
     23 C19        -2.9073    6.3072    8.9275 C.ar      1 <0>        -0.1792
     24 C20        -1.8532    5.4664    8.6293 C.ar      1 <0>        -0.1019
     25 O1         -5.2309    6.8050    8.8209 O.3       1 <0>        -0.3275
     26 C21        -4.9251    7.9922    9.5552 C.3       1 <0>         0.0270
     27 C22        -6.2093    8.7883    9.7955 C.3       1 <0>         0.0037
     28 N5         -7.1092    8.0161   10.6625 N.4       1 <0>        -0.3956
     29 C23        -6.5439    7.9216   12.0328 C.3       1 <0>        -0.0103
     30 C24        -7.7853    7.6167   12.9083 C.3       1 <0>        -0.1448
     31 C25        -8.8926    8.4690   12.2467 C.3       1 <0>        -0.1451
     32 C26        -8.4034    8.7171   10.8078 C.3       1 <0>        -0.0086
     33 C27         2.0807    0.0282    5.6615 C.3       1 <0>        -0.1088
     34 C28        -0.3820   -2.7260    2.2422 C.3       1 <0>        -0.1197
     35 H1          1.6938    1.8831    0.2189 H         1 <0>         0.0732
     36 H2          0.2940    2.1834   -0.8389 H         1 <0>         0.0715
     37 H3          0.0733    2.0921    0.9250 H         1 <0>         0.0688
     38 H4          0.6417    0.1692   -2.1506 H         1 <0>         0.1264
     39 H5          0.2536   -2.2537   -2.3278 H         1 <0>         0.1262
     40 H6         -0.2155   -3.5835   -0.3118 H         1 <0>         0.1265
     41 H7          1.8176   -0.9289    3.1815 H         1 <0>         0.1446
     42 H8         -1.6320    1.3008    1.9625 H         1 <0>         0.1496
     43 H9         -0.3064    3.2977    8.2563 H         1 <0>         0.4279
     44 H10        -3.5422    3.0609    6.9529 H         1 <0>         0.1391
     45 H11        -5.4204    4.5555    7.4956 H         1 <0>         0.1378
     46 H12        -2.7314    7.2182    9.4802 H         1 <0>         0.1318
     47 H13        -0.8531    5.7196    8.9490 H         1 <0>         0.1352
     48 H14        -4.4802    7.7225   10.5130 H         1 <0>         0.0848
     49 H15        -4.2217    8.6002    8.9862 H         1 <0>         0.1081
     50 H16        -5.9651    9.7353   10.2768 H         1 <0>         0.1481
     51 H17        -6.7008    8.9816    8.8419 H         1 <0>         0.1415
     52 H18        -5.8202    7.1089   12.0952 H         1 <0>         0.1335
     53 H19        -6.0884    8.8671   12.3271 H         1 <0>         0.1346
     54 H20        -8.0368    6.5570   12.8653 H         1 <0>         0.0983
     55 H21        -7.6183    7.9331   13.9379 H         1 <0>         0.1170
     56 H22        -9.8356    7.9224   12.2368 H         1 <0>         0.1055
     57 H23        -9.0083    9.4151   12.7754 H         1 <0>         0.1042
     58 H24        -8.2677    9.7856   10.6408 H         1 <0>         0.1312
     59 H25        -9.1249    8.3160   10.0960 H         1 <0>         0.1330
     60 H26         2.9394    0.6911    5.5550 H         1 <0>         0.0769
     61 H27         1.6601    0.1363    6.6612 H         1 <0>         0.0786
     62 H28         2.3973   -1.0038    5.5102 H         1 <0>         0.0738
     63 H29         0.5544   -3.0931    2.6624 H         1 <0>         0.0743
     64 H30        -0.8913   -2.1039    2.9783 H         1 <0>         0.0654
     65 H31        -1.0179   -3.5710    1.9784 H         1 <0>         0.0711
     66 H32        -7.2542    7.0935   10.2806 H         1 <0>         0.4340
@<TRIPOS>BOND
     1    1    2 1
     2    1   35 1
     3    1   36 1
     4    1   37 1
     5    2    7 ar
     6    2    3 ar
     7    3    4 ar
     8    3   38 1
     9    4    5 ar
    10    4   39 1
    11    5    6 ar
    12    5   40 1
    13    6    7 ar
    14    6   34 1
    15    7    8 1
    16    8   13 ar
    17    8    9 ar
    18    9   10 ar
    19    9   41 1
    20   10   11 ar
    21   10   33 1
    22   11   17 ar
    23   11   12 ar
    24   12   13 ar
    25   12   14 ar
    26   13   42 1
    27   14   15 ar
    28   15   16 ar
    29   16   17 ar
    30   16   18 1
    31   18   19 1
    32   18   43 1
    33   19   24 ar
    34   19   20 ar
    35   20   21 ar
    36   20   44 1
    37   21   22 ar
    38   21   45 1
    39   22   23 ar
    40   22   25 1
    41   23   24 ar
    42   23   46 1
    43   24   47 1
    44   25   26 1
    45   26   27 1
    46   26   48 1
    47   26   49 1
    48   27   28 1
    49   27   50 1
    50   27   51 1
    51   28   32 1
    52   28   29 1
    53   28   66 1
    54   29   30 1
    55   29   52 1
    56   29   53 1
    57   30   31 1
    58   30   54 1
    59   30   55 1
    60   31   32 1
    61   31   56 1
    62   31   57 1
    63   32   58 1
    64   32   59 1
    65   33   60 1
    66   33   61 1
    67   33   62 1
    68   34   63 1
    69   34   64 1
    70   34   65 1
@<TRIPOS>MOLECULE
CHEMBL301612
   41    44     0     0     0
SMALL
USER_CHARGES

@<TRIPOS>ATOM
      1 C1         -0.0518    1.4095    0.7071 C.3       1 <0>         0.0700
      2 N1         -0.0222   -0.0407    0.5011 N.am      1 <0>        -0.5062
      3 C2         -1.1943   -0.7197    0.2832 C.ar      1 <0>         0.4667
      4 C3         -1.1833   -2.1170    0.0825 C.ar      1 <0>        -0.2772
      5 C4          0.0376   -2.8292    0.1045 C.2       1 <0>         0.0315
      6 C5          1.2022   -2.1432    0.3227 C.2       1 <0>        -0.1645
      7 C6          1.1560   -0.6931    0.5222 C.2       1 <0>         0.5578
      8 O1          2.1880   -0.0744    0.7124 O.2       1 <0>        -0.5028
      9 C7          2.4981   -2.8608    0.3520 C.ar      1 <0>        -0.0097
     10 C8          2.9865   -3.3765    1.5532 C.ar      1 <0>        -0.0068
     11 C9          4.1950   -4.0448    1.5735 C.ar      1 <0>        -0.1062
     12 C10         4.9210   -4.2031    0.4068 C.ar      1 <0>        -0.0875
     13 C11         4.4428   -3.6939   -0.7871 C.ar      1 <0>        -0.1061
     14 C12         3.2327   -3.0289   -0.8224 C.ar      1 <0>        -0.0068
     15 Cl1         2.6309   -2.3969   -2.3230 Cl        1 <0>        -0.0502
     16 Cl2         2.0773   -3.1780    3.0187 Cl        1 <0>        -0.0503
     17 C13        -2.4037   -2.7731   -0.1376 C.ar      1 <0>         0.2640
     18 N2         -3.5127   -2.0575   -0.1481 N.ar      1 <0>        -0.5671
     19 C14        -3.4850   -0.7433    0.0446 C.ar      1 <0>         0.6085
     20 N3         -2.3583   -0.0805    0.2560 N.ar      1 <0>        -0.5951
     21 N4         -4.6757   -0.0424    0.0236 N.pl3     1 <0>        -0.6261
     22 C15        -5.8891   -0.7288   -0.0804 C.ar      1 <0>         0.1545
     23 C16        -6.0350   -1.9780    0.5093 C.ar      1 <0>        -0.1100
     24 C17        -7.2351   -2.6533    0.4047 C.ar      1 <0>        -0.1005
     25 C18        -8.2907   -2.0876   -0.2865 C.ar      1 <0>        -0.1329
     26 C19        -8.1487   -0.8443   -0.8752 C.ar      1 <0>        -0.0994
     27 C20        -6.9534   -0.1607   -0.7687 C.ar      1 <0>        -0.1439
     28 H1          0.9636    1.7757    0.8589 H         1 <0>         0.1008
     29 H2         -0.4849    1.8921   -0.1690 H         1 <0>         0.0801
     30 H3         -0.6560    1.6395    1.5846 H         1 <0>         0.0803
     31 H4          0.0515   -3.8982   -0.0482 H         1 <0>         0.1506
     32 H5          4.5741   -4.4445    2.5025 H         1 <0>         0.1438
     33 H6          5.8656   -4.7262    0.4282 H         1 <0>         0.1454
     34 H7          5.0148   -3.8202   -1.6944 H         1 <0>         0.1438
     35 H8         -2.4351   -3.8410   -0.2954 H         1 <0>         0.1883
     36 H9         -4.6695    0.9259    0.0810 H         1 <0>         0.4264
     37 H10        -5.2107   -2.4207    1.0488 H         1 <0>         0.1345
     38 H11        -7.3491   -3.6246    0.8630 H         1 <0>         0.1262
     39 H12        -9.2280   -2.6180   -0.3672 H         1 <0>         0.1239
     40 H13        -8.9750   -0.4054   -1.4147 H         1 <0>         0.1271
     41 H14        -6.8447    0.8124   -1.2246 H         1 <0>         0.1251
@<TRIPOS>BOND
     1    1    2 1
     2    1   28 1
     3    1   29 1
     4    1   30 1
     5    2    7 am
     6    2    3 1
     7    3   20 ar
     8    3    4 ar
     9    4    5 1
    10    4   17 ar
    11    5    6 2
    12    5   31 1
    13    6    7 1
    14    6    9 1
    15    7    8 2
    16    9   14 ar
    17    9   10 ar
    18   10   11 ar
    19   10   16 1
    20   11   12 ar
    21   11   32 1
    22   12   13 ar
    23   12   33 1
    24   13   14 ar
    25   13   34 1
    26   14   15 1
    27   17   18 ar
    28   17   35 1
    29   18   19 ar
    30   19   20 ar
    31   19   21 1
    32   21   22 1
    33   21   36 1
    34   22   27 ar
    35   22   23 ar
    36   23   24 ar
    37   23   37 1
    38   24   25 ar
    39   24   38 1
    40   25   26 ar
    41   25   39 1
    42   26   27 ar
    43   26   40 1
    44   27   41 1
@<TRIPOS>MOLECULE
CHEMBL572878
   62    66     0     0     0
SMALL
USER_CHARGES

@<TRIPOS>ATOM
      1 C1          0.6605   -0.0459    2.1766 C.3       1 <0>        -0.0811
      2 C2          0.1518   -0.6678    0.9016 C.2       1 <0>         0.1060
      3 C3          0.5159   -1.9211    0.4021 C.2       1 <0>        -0.2723
      4 C4         -0.1582   -2.1174   -0.7646 C.2       1 <0>         0.3252
      5 N1         -0.9212   -1.0157   -0.9849 N.pl3     1 <0>        -0.4965
      6 H1         -1.5109   -0.8710   -1.7414 H         1 <0>         0.4336
      7 N2         -0.7096   -0.1283    0.0780 N.2       1 <0>        -0.2841
      8 N3         -0.0793   -3.2424   -1.5828 N.pl3     1 <0>        -0.6253
      9 C5         -0.1793   -3.1069   -2.9599 C.ar      1 <0>         0.4729
     10 C6         -0.2071   -1.8436   -3.5441 C.ar      1 <0>        -0.3733
     11 C7         -0.3078   -1.7563   -4.9296 C.ar      1 <0>         0.4788
     12 N4         -0.3738   -2.8761   -5.6461 N.ar      1 <0>        -0.5790
     13 C8         -0.3445   -4.0620   -5.0560 C.ar      1 <0>         0.3699
     14 N5         -0.2442   -4.1831   -3.7403 N.ar      1 <0>        -0.5789
     15 S1         -0.4352   -5.5160   -6.0470 S.3       1 <0>         0.1323
     16 C9         -0.2148   -6.8312   -4.8954 C.ar      1 <0>        -0.1671
     17 C10        -1.3214   -7.4679   -4.3477 C.ar      1 <0>        -0.0279
     18 C11        -1.1485   -8.4985   -3.4459 C.ar      1 <0>        -0.1571
     19 C12         0.1316   -8.8987   -3.0857 C.ar      1 <0>         0.1921
     20 C13         1.2381   -8.2621   -3.6327 C.ar      1 <0>        -0.1322
     21 C14         1.0657   -7.2356   -4.5393 C.ar      1 <0>        -0.0281
     22 N6          0.3069   -9.9445   -2.1700 N.am      1 <0>        -0.6744
     23 C15         1.3500   -9.9254   -1.3167 C.2       1 <0>         0.5469
     24 O1          2.0821   -8.9592   -1.2754 O.2       1 <0>        -0.5137
     25 C16         1.6067  -11.1045   -0.4140 C.3       1 <0>        -0.2024
     26 C17         1.3853  -10.9065    1.0869 C.3       1 <0>        -0.1493
     27 C18         2.8064  -11.0219    0.5320 C.3       1 <0>        -0.1425
     28 N7         -0.3395   -0.5195   -5.5549 N.pl3     1 <0>        -0.6162
     29 C19        -0.6634   -0.4031   -6.9851 C.3       1 <0>         0.1024
     30 C20        -1.7593    0.6550   -7.1504 C.3       1 <0>        -0.0226
     31 N8         -1.3254    1.9097   -6.5232 N.4       1 <0>        -0.3849
     32 C21        -1.1753    1.7192   -5.0750 C.3       1 <0>        -0.0216
     33 C22        -0.0561    0.7143   -4.8056 C.3       1 <0>         0.0987
     34 C23        -2.3271    2.9538   -6.7768 C.3       1 <0>        -0.0472
     35 H2          0.0118   -0.3321    3.0044 H         1 <0>         0.0842
     36 H3          1.6744   -0.3951    2.3719 H         1 <0>         0.0837
     37 H4          0.6632    1.0394    2.0755 H         1 <0>         0.0773
     38 H5          1.2093   -2.6111    0.8597 H         1 <0>         0.1576
     39 H6          0.0455   -4.1203   -1.1896 H         1 <0>         0.4366
     40 H7         -0.1523   -0.9523   -2.9366 H         1 <0>         0.1428
     41 H8         -2.3170   -7.1562   -4.6272 H         1 <0>         0.1352
     42 H9         -2.0088   -8.9934   -3.0201 H         1 <0>         0.1349
     43 H10         2.2335   -8.5733   -3.3522 H         1 <0>         0.1415
     44 H11         1.9262   -6.7438   -4.9683 H         1 <0>         0.1326
     45 H12        -0.3225  -10.6824   -2.1501 H         1 <0>         0.4170
     46 H13         1.3636  -12.0803   -0.8345 H         1 <0>         0.1304
     47 H14         1.0539   -9.9234    1.4214 H         1 <0>         0.1003
     48 H15         0.9962  -11.7521    1.6541 H         1 <0>         0.1098
     49 H16         3.3523  -11.9434    0.7341 H         1 <0>         0.1088
     50 H17         3.4100  -10.1148    0.5014 H         1 <0>         0.1096
     51 H18         0.2253   -0.0996   -7.5384 H         1 <0>         0.0928
     52 H19        -1.0213   -1.3625   -7.3589 H         1 <0>         0.1404
     53 H20        -1.9444    0.8239   -8.2112 H         1 <0>         0.1457
     54 H21        -2.6751    0.3074   -6.6723 H         1 <0>         0.1323
     55 H22        -0.9302    2.6724   -4.6065 H         1 <0>         0.1470
     56 H23        -2.1089    1.3395   -4.6597 H         1 <0>         0.1334
     57 H24        -0.0126    0.4934   -3.7391 H         1 <0>         0.1254
     58 H25         0.8950    1.1327   -5.1351 H         1 <0>         0.0984
     59 H26        -3.2849    2.6485   -6.3554 H         1 <0>         0.1218
     60 H27        -2.0062    3.8859   -6.3116 H         1 <0>         0.1260
     61 H28        -2.4336    3.1019   -7.8514 H         1 <0>         0.1269
     62 H29        -0.4408    2.1930   -6.9173 H         1 <0>         0.4262
@<TRIPOS>BOND
     1    1    2 1
     2    1   35 1
     3    1   36 1
     4    1   37 1
     5    2    7 2
     6    2    3 1
     7    3    4 2
     8    3   38 1
     9    4    5 1
    10    4    8 1
    11    5    6 1
    12    5    7 1
    13    8    9 1
    14    8   39 1
    15    9   14 ar
    16    9   10 ar
    17   10   11 ar
    18   10   40 1
    19   11   12 ar
    20   11   28 1
    21   12   13 ar
    22   13   14 ar
    23   13   15 1
    24   15   16 1
    25   16   21 ar
    26   16   17 ar
    27   17   18 ar
    28   17   41 1
    29   18   19 ar
    30   18   42 1
    31   19   20 ar
    32   19   22 1
    33   20   21 ar
    34   20   43 1
    35   21   44 1
    36   22   23 am
    37   22   45 1
    38   23   24 2
    39   23   25 1
    40   25   27 1
    41   25   26 1
    42   25   46 1
    43   26   27 1
    44   26   47 1
    45   26   48 1
    46   27   49 1
    47   27   50 1
    48   28   33 1
    49   28   29 1
    50   29   30 1
    51   29   51 1
    52   29   52 1
    53   30   31 1
    54   30   53 1
    55   30   54 1
    56   31   32 1
    57   31   34 1
    58   31   62 1
    59   32   33 1
    60   32   55 1
    61   32   56 1
    62   33   57 1
    63   33   58 1
    64   34   59 1
    65   34   60 1
    66   34   61 1
@<TRIPOS>MOLECULE
CHEMBL572878__1
   62    66     0     0     0
SMALL
USER_CHARGES

@<TRIPOS>ATOM
      1 C1         -0.0203   -0.4189   -2.7288 C.3       1 <0>        -0.1024
      2 C2         -0.0072   -0.8795   -1.2939 C.2       1 <0>         0.1306
      3 C3          0.0080   -2.1636   -0.8701 C.2       1 <0>        -0.2894
      4 C4          0.0168   -2.1537    0.5342 C.2       1 <0>         0.3349
      5 N1          0.0071   -0.9032    0.9320 N.2       1 <0>        -0.3401
      6 H1         -0.0077    0.8864   -0.2066 H         1 <0>         0.4405
      7 N2         -0.0027   -0.0836   -0.2039 N.pl3     1 <0>        -0.4741
      8 N3          0.0327   -3.2813    1.3649 N.pl3     1 <0>        -0.6092
      9 C5          0.1476   -3.1291    2.7387 C.ar      1 <0>         0.4608
     10 C6          0.1255   -1.8606    3.3120 C.ar      1 <0>        -0.3458
     11 C7          0.2440   -1.7562    4.6948 C.ar      1 <0>         0.4614
     12 N4          0.3737   -2.8652    5.4194 N.ar      1 <0>        -0.5791
     13 C8          0.3906   -4.0564    4.8397 C.ar      1 <0>         0.3615
     14 N5          0.2748   -4.1940    3.5268 N.ar      1 <0>        -0.5810
     15 S1          0.5650   -5.4957    5.8411 S.3       1 <0>         0.1206
     16 C9          0.3894   -6.8301    4.7039 C.ar      1 <0>        -0.1613
     17 C10         1.5165   -7.4193    4.1448 C.ar      1 <0>        -0.0287
     18 C11         1.3787   -8.4646    3.2539 C.ar      1 <0>        -0.1320
     19 C12         0.1135   -8.9270    2.9161 C.ar      1 <0>         0.1896
     20 C13        -1.0133   -8.3382    3.4749 C.ar      1 <0>        -0.1565
     21 C14        -0.8759   -7.2969    4.3705 C.ar      1 <0>        -0.0291
     22 N6         -0.0261   -9.9874    2.0111 N.am      1 <0>        -0.6751
     23 C15         0.8857  -10.9797    1.9898 C.2       1 <0>         0.5458
     24 O1          1.7696  -11.0090    2.8199 O.2       1 <0>        -0.5122
     25 C16         0.8070  -12.0528    0.9347 C.3       1 <0>        -0.2020
     26 C17         0.4357  -13.4655    1.3902 C.3       1 <0>        -0.1494
     27 C18         1.8713  -13.1517    0.9640 C.3       1 <0>        -0.1431
     28 N7          0.2277   -0.5137    5.3093 N.pl3     1 <0>        -0.6169
     29 C19         0.5721   -0.3690    6.7321 C.3       1 <0>         0.1034
     30 C20         1.6187    0.7419    6.8680 C.3       1 <0>        -0.0226
     31 N8          1.1133    1.9687    6.2389 N.4       1 <0>        -0.3850
     32 C21         0.9458    1.7581    4.7954 C.3       1 <0>        -0.0207
     33 C22        -0.1286    0.6983    4.5555 C.3       1 <0>         0.0987
     34 C23         2.0681    3.0619    6.4649 C.3       1 <0>        -0.0469
     35 H2         -1.0511   -0.3180   -3.0686 H         1 <0>         0.0891
     36 H3          0.4835    0.5446   -2.8057 H         1 <0>         0.0768
     37 H4          0.4971   -1.1501   -3.3498 H         1 <0>         0.0930
     38 H5          0.0127   -3.0410   -1.4997 H         1 <0>         0.1559
     39 H6         -0.0366   -4.1688    0.9794 H         1 <0>         0.4320
     40 H7          0.0194   -0.9783    2.6982 H         1 <0>         0.1873
     41 H8          2.5004   -7.0592    4.4069 H         1 <0>         0.1341
     42 H9          2.2548   -8.9226    2.8193 H         1 <0>         0.1397
     43 H10        -1.9971   -8.6977    3.2117 H         1 <0>         0.1338
     44 H11        -1.7520   -6.8419    4.8084 H         1 <0>         0.1331
     45 H12        -0.7791  -10.0075    1.3999 H         1 <0>         0.4156
     46 H13         0.4465  -11.7272   -0.0410 H         1 <0>         0.1293
     47 H14         0.2484  -13.6187    2.4530 H         1 <0>         0.1016
     48 H15        -0.1694  -14.0695    0.7141 H         1 <0>         0.1095
     49 H16         2.2106  -13.5492    0.0075 H         1 <0>         0.1082
     50 H17         2.6283  -13.0984    1.7463 H         1 <0>         0.1101
     51 H18        -0.3197   -0.1034    7.2997 H         1 <0>         0.0902
     52 H19         0.9826   -1.3067    7.1069 H         1 <0>         0.1389
     53 H20         1.8150    0.9291    7.9237 H         1 <0>         0.1439
     54 H21         2.5412    0.4344    6.3755 H         1 <0>         0.1318
     55 H22         0.6464    2.6941    4.3239 H         1 <0>         0.1434
     56 H23         1.8887    1.4198    4.3657 H         1 <0>         0.1329
     57 H24        -0.1812    0.4659    3.4919 H         1 <0>         0.1343
     58 H25        -1.0924    1.0735    4.8996 H         1 <0>         0.0934
     59 H26         3.0315    2.7990    6.0280 H         1 <0>         0.1212
     60 H27         1.6941    3.9733    5.9984 H         1 <0>         0.1247
     61 H28         2.1873    3.2246    7.5361 H         1 <0>         0.1260
     62 H29         0.2235    2.2127    6.6474 H         1 <0>         0.4252
@<TRIPOS>BOND
     1    1    2 1
     2    1   35 1
     3    1   36 1
     4    1   37 1
     5    2    3 2
     6    2    7 1
     7    3   38 1
     8    3    4 1
     9    4    8 1
    10    4    5 2
    11    5    7 1
    12    6    7 1
    13    8    9 1
    14    8   39 1
    15    9   14 ar
    16    9   10 ar
    17   10   11 ar
    18   10   40 1
    19   11   12 ar
    20   11   28 1
    21   12   13 ar
    22   13   14 ar
    23   13   15 1
    24   15   16 1
    25   16   21 ar
    26   16   17 ar
    27   17   18 ar
    28   17   41 1
    29   18   19 ar
    30   18   42 1
    31   19   20 ar
    32   19   22 1
    33   20   21 ar
    34   20   43 1
    35   21   44 1
    36   22   23 am
    37   22   45 1
    38   23   24 2
    39   23   25 1
    40   25   27 1
    41   25   26 1
    42   25   46 1
    43   26   27 1
    44   26   47 1
    45   26   48 1
    46   27   49 1
    47   27   50 1
    48   28   33 1
    49   28   29 1
    50   29   30 1
    51   29   51 1
    52   29   52 1
    53   30   31 1
    54   30   53 1
    55   30   54 1
    56   31   32 1
    57   31   34 1
    58   31   62 1
    59   32   33 1
    60   32   55 1
    61   32   56 1
    62   33   57 1
    63   33   58 1
    64   34   59 1
    65   34   60 1
    66   34   61 1
@<TRIPOS>MOLECULE
CHEMBL495727
   51    55     0     0     0
SMALL
USER_CHARGES

@<TRIPOS>ATOM
      1 C1         -0.0167    1.3832    0.0096 C.ar      1 <0>        -0.0900
      2 C2          1.1624    2.0986    0.0022 C.ar      1 <0>        -0.1093
      3 C3          2.3769    1.4282   -0.0129 C.ar      1 <0>         0.0585
      4 C4          2.4020    0.0222   -0.0207 C.ar      1 <0>         0.0556
      5 C5          1.1969   -0.6870   -0.0127 C.ar      1 <0>        -0.0377
      6 C6          0.0021   -0.0041    0.0020 C.ar      1 <0>        -0.0874
      7 C7         -1.2962   -0.7693    0.0108 C.3       1 <0>         0.0982
      8 N1         -1.7317   -1.0105   -1.3713 N.3       1 <0>        -0.5319
      9 C8         -2.0812    0.2506   -2.0413 C.3       1 <0>         0.0140
     10 C9         -2.4711   -0.0400   -3.4930 C.3       1 <0>         0.0628
     11 O1         -3.5484   -0.9803   -3.5128 O.3       1 <0>        -0.3858
     12 C10        -3.2423   -2.2203   -2.8694 C.3       1 <0>         0.0630
     13 C11        -2.8603   -1.9518   -1.4114 C.3       1 <0>         0.0170
     14 N2          3.7040   -0.3552   -0.0358 N.2       1 <0>        -0.4791
     15 C12         4.4709    0.7083   -0.0379 C.2       1 <0>         0.3677
     16 N3          3.6969    1.8375   -0.0241 N.pl3     1 <0>        -0.5827
     17 H1          4.0155    2.7537   -0.0227 H         1 <0>         0.4299
     18 C13         5.9482    0.6906   -0.0529 C.2       1 <0>         0.1128
     19 C14         6.7655   -0.4629   -0.0734 C.2       1 <0>         0.0625
     20 C15         8.0574   -0.0542   -0.0820 C.2       1 <0>         0.0467
     21 N4          8.0646    1.3049   -0.0675 N.pl3     1 <0>        -0.4518
     22 H2          8.8531    1.8699   -0.0696 H         1 <0>         0.4522
     23 N5          6.7361    1.7481   -0.0552 N.2       1 <0>        -0.2610
     24 N6          6.3179   -1.7953   -0.0825 N.am      1 <0>        -0.6484
     25 C16         7.2097   -2.8056   -0.1024 C.2       1 <0>         0.7112
     26 O2          8.4015   -2.5644   -0.1124 O.2       1 <0>        -0.5835
     27 N7          6.7806   -4.0832   -0.1111 N.am      1 <0>        -0.7107
     28 C17         7.7500   -5.1814   -0.1326 C.3       1 <0>         0.0984
     29 C18         7.4710   -6.3514   -1.0782 C.3       1 <0>        -0.1941
     30 C19         7.3013   -6.5309    0.4317 C.3       1 <0>        -0.1895
     31 H3         -0.9613    1.9065    0.0260 H         1 <0>         0.1292
     32 H4          1.1404    3.1784    0.0078 H         1 <0>         0.1265
     33 H5          1.2037   -1.7669   -0.0185 H         1 <0>         0.1329
     34 H6         -1.1522   -1.7232    0.5181 H         1 <0>         0.0877
     35 H7         -2.0559   -0.1898    0.5352 H         1 <0>         0.0478
     36 H8         -2.9207    0.7164   -1.5252 H         1 <0>         0.0435
     37 H9         -1.2233    0.9227   -2.0224 H         1 <0>         0.0909
     38 H10        -2.7857    0.8844   -3.9773 H         1 <0>         0.0978
     39 H11        -1.6147   -0.4564   -4.0234 H         1 <0>         0.0598
     40 H12        -4.1148   -2.8728   -2.9028 H         1 <0>         0.0988
     41 H13        -2.4084   -2.7001   -3.3817 H         1 <0>         0.0605
     42 H14        -2.5711   -2.8874   -0.9327 H         1 <0>         0.0882
     43 H15        -3.7122   -1.5212   -0.8852 H         1 <0>         0.0444
     44 H16         8.9269   -0.6946   -0.0972 H         1 <0>         0.2141
     45 H17         5.3672   -1.9876   -0.0745 H         1 <0>         0.4224
     46 H18         5.8299   -4.2755   -0.1031 H         1 <0>         0.4015
     47 H19         8.7902   -4.8932    0.0188 H         1 <0>         0.1414
     48 H20         6.5663   -6.3041   -1.6842 H         1 <0>         0.0976
     49 H21         8.3279   -6.8332   -1.5492 H         1 <0>         0.1039
     50 H22         8.0465   -7.1307    0.9541 H         1 <0>         0.1053
     51 H23         6.2849   -6.6016    0.8191 H         1 <0>         0.0980
@<TRIPOS>BOND
     1    1    6 ar
     2    1    2 ar
     3    1   31 1
     4    2    3 ar
     5    2   32 1
     6    3   16 1
     7    3    4 ar
     8    4    5 ar
     9    4   14 1
    10    5    6 ar
    11    5   33 1
    12    6    7 1
    13    7    8 1
    14    7   34 1
    15    7   35 1
    16    8   13 1
    17    8    9 1
    18    9   10 1
    19    9   36 1
    20    9   37 1
    21   10   11 1
    22   10   38 1
    23   10   39 1
    24   11   12 1
    25   12   13 1
    26   12   40 1
    27   12   41 1
    28   13   42 1
    29   13   43 1
    30   14   15 2
    31   15   16 1
    32   15   18 1
    33   16   17 1
    34   18   23 2
    35   18   19 1
    36   19   20 2
    37   19   24 1
    38   20   21 1
    39   20   44 1
    40   21   22 1
    41   21   23 1
    42   24   25 am
    43   24   45 1
    44   25   26 2
    45   25   27 am
    46   27   28 1
    47   27   46 1
    48   28   30 1
    49   28   29 1
    50   28   47 1
    51   29   30 1
    52   29   48 1
    53   29   49 1
    54   30   50 1
    55   30   51 1
@<TRIPOS>MOLECULE
CHEMBL495727__1
   51    55     0     0     0
SMALL
USER_CHARGES

@<TRIPOS>ATOM
      1 C1         -0.0167    1.3831    0.0096 C.ar      1 <0>        -0.0887
      2 C2          1.1627    2.0986    0.0022 C.ar      1 <0>        -0.1106
      3 C3          2.3770    1.4285   -0.0130 C.ar      1 <0>         0.0600
      4 C4          2.4023    0.0224   -0.0208 C.ar      1 <0>         0.0578
      5 C5          1.1970   -0.6870   -0.0135 C.ar      1 <0>        -0.0380
      6 C6          0.0021   -0.0041    0.0020 C.ar      1 <0>        -0.0853
      7 C7         -1.2962   -0.7693    0.0108 C.3       1 <0>         0.0974
      8 N1         -1.7318   -1.0105   -1.3712 N.3       1 <0>        -0.5319
      9 C8         -2.0813    0.2506   -2.0411 C.3       1 <0>         0.0140
     10 C9         -2.4713   -0.0400   -3.4928 C.3       1 <0>         0.0628
     11 O1         -3.5486   -0.9804   -3.5126 O.3       1 <0>        -0.3854
     12 C10        -3.2424   -2.2204   -2.8692 C.3       1 <0>         0.0629
     13 C11        -2.8603   -1.9518   -1.4112 C.3       1 <0>         0.0170
     14 N2          3.7036   -0.3562   -0.0353 N.2       1 <0>        -0.4774
     15 C12         4.4730    0.7087   -0.0369 C.2       1 <0>         0.3571
     16 N3          3.6973    1.8393   -0.0234 N.pl3     1 <0>        -0.5976
     17 H1          4.0152    2.7557   -0.0218 H         1 <0>         0.4231
     18 C13         5.9430    0.6909   -0.0506 C.2       1 <0>         0.0734
     19 C14         6.7538   -0.4319   -0.0644 C.2       1 <0>         0.1080
     20 C15         8.0822    0.0081   -0.0747 C.2       1 <0>         0.0527
     21 N4          8.0923    1.3163   -0.0678 N.2       1 <0>        -0.2437
     22 H2          6.4934    2.7109   -0.0552 H         1 <0>         0.4431
     23 N5          6.7718    1.7818   -0.0582 N.pl3     1 <0>        -0.4691
     24 N6          6.3226   -1.7651   -0.0670 N.am      1 <0>        -0.6478
     25 C16         7.2258   -2.7654   -0.0811 C.2       1 <0>         0.7127
     26 O2          8.4147   -2.5110   -0.0915 O.2       1 <0>        -0.5747
     27 N7          6.8111   -4.0478   -0.0836 N.am      1 <0>        -0.7097
     28 C17         7.7928   -5.1351   -0.0989 C.3       1 <0>         0.0977
     29 C18         7.5278   -6.3130   -1.0387 C.3       1 <0>        -0.1937
     30 C19         7.3589   -6.4867    0.4720 C.3       1 <0>        -0.1892
     31 H3         -0.9613    1.9064    0.0260 H         1 <0>         0.1301
     32 H4          1.1406    3.1784    0.0079 H         1 <0>         0.1265
     33 H5          1.2038   -1.7670   -0.0192 H         1 <0>         0.1340
     34 H6         -1.1522   -1.7232    0.5181 H         1 <0>         0.0882
     35 H7         -2.0559   -0.1899    0.5354 H         1 <0>         0.0484
     36 H8         -2.9208    0.7164   -1.5250 H         1 <0>         0.0438
     37 H9         -1.2234    0.9227   -2.0223 H         1 <0>         0.0903
     38 H10        -2.7860    0.8843   -3.9772 H         1 <0>         0.0980
     39 H11        -1.6149   -0.4564   -4.0233 H         1 <0>         0.0598
     40 H12        -4.1149   -2.8729   -2.9025 H         1 <0>         0.0993
     41 H13        -2.4086   -2.7001   -3.3816 H         1 <0>         0.0606
     42 H14        -2.5710   -2.8874   -0.9325 H         1 <0>         0.0885
     43 H15        -3.7123   -1.5212   -0.8850 H         1 <0>         0.0448
     44 H16         8.9552   -0.6276   -0.0862 H         1 <0>         0.2193
     45 H17         5.3741   -1.9682   -0.0587 H         1 <0>         0.4219
     46 H18         5.8626   -4.2508   -0.0753 H         1 <0>         0.4013
     47 H19         8.8296   -4.8345    0.0518 H         1 <0>         0.1426
     48 H20         6.6230   -6.2789   -1.6457 H         1 <0>         0.0975
     49 H21         8.3903   -6.7875   -1.5066 H         1 <0>         0.1044
     50 H22         8.1104   -7.0755    0.9980 H         1 <0>         0.1057
     51 H23         6.3431   -6.5669    0.8589 H         1 <0>         0.0979
@<TRIPOS>BOND
     1    1    6 ar
     2    1    2 ar
     3    1   31 1
     4    2    3 ar
     5    2   32 1
     6    3   16 1
     7    3    4 ar
     8    4    5 ar
     9    4   14 1
    10    5    6 ar
    11    5   33 1
    12    6    7 1
    13    7    8 1
    14    7   34 1
    15    7   35 1
    16    8   13 1
    17    8    9 1
    18    9   10 1
    19    9   36 1
    20    9   37 1
    21   10   11 1
    22   10   38 1
    23   10   39 1
    24   11   12 1
    25   12   13 1
    26   12   40 1
    27   12   41 1
    28   13   42 1
    29   13   43 1
    30   14   15 2
    31   15   16 1
    32   15   18 1
    33   16   17 1
    34   18   19 2
    35   18   23 1
    36   19   20 1
    37   19   24 1
    38   20   21 2
    39   20   44 1
    40   21   23 1
    41   22   23 1
    42   24   25 am
    43   24   45 1
    44   25   26 2
    45   25   27 am
    46   27   28 1
    47   27   46 1
    48   28   30 1
    49   28   29 1
    50   28   47 1
    51   29   30 1
    52   29   48 1
    53   29   49 1
    54   30   50 1
    55   30   51 1
@<TRIPOS>MOLECULE
CHEMBL525909
   71    74     0     0     0
SMALL
USER_CHARGES

@<TRIPOS>ATOM
      1 C1          0.1309   -0.6412    1.1096 C.3       1 <0>        -0.1765
      2 C2          0.2899   -0.0290   -0.2583 C.2       1 <0>         0.5087
      3 O1          1.2106    0.7288   -0.4803 O.2       1 <0>        -0.5099
      4 N1         -0.5909   -0.3236   -1.2349 N.am      1 <0>        -0.5685
      5 C3         -1.7554   -1.1630   -0.9424 C.3       1 <0>         0.1120
      6 C4         -2.9434   -0.2745   -0.5678 C.3       1 <0>        -0.1742
      7 C5         -4.1595   -1.1512   -0.2623 C.3       1 <0>        -0.0084
      8 N2         -5.3001   -0.2982    0.0974 N.4       1 <0>        -0.3874
      9 C6         -6.4976   -1.1305    0.2740 C.3       1 <0>        -0.0476
     10 C7         -5.0064    0.4095    1.3507 C.3       1 <0>        -0.0534
     11 C8         -0.3930    0.1728   -2.5296 C.ar      1 <0>         0.0840
     12 C9         -0.1141   -0.7005   -3.5729 C.ar      1 <0>        -0.0769
     13 C10         0.0815   -0.2115   -4.8487 C.ar      1 <0>        -0.1564
     14 C11        -0.0012    1.1544   -5.0893 C.ar      1 <0>         0.2066
     15 C12        -0.2807    2.0277   -4.0456 C.ar      1 <0>        -0.1621
     16 C13        -0.4813    1.5377   -2.7709 C.ar      1 <0>        -0.0612
     17 N3          0.1974    1.6501   -6.3818 N.pl3     1 <0>        -0.6664
     18 C14         0.2753    3.0009   -6.5926 C.2       1 <0>         0.3250
     19 C15        -0.6253    3.6243   -7.4514 C.2       1 <0>        -0.2153
     20 C16        -0.5999    5.0298   -7.8998 C.ar      1 <0>        -0.0547
     21 C17         0.2499    6.1042   -7.6409 C.ar      1 <0>        -0.0862
     22 C18         0.0101    7.3186   -8.2167 C.ar      1 <0>        -0.0774
     23 C19        -1.0883    7.4889   -9.0682 C.ar      1 <0>        -0.0928
     24 C20        -1.9455    6.4189   -9.3339 C.ar      1 <0>        -0.0680
     25 C21        -1.7062    5.1856   -8.7523 C.ar      1 <0>         0.1287
     26 N4         -2.3711    3.9677   -8.8291 N.am      1 <0>        -0.6515
     27 C22        -1.7543    3.0371   -8.0816 C.2       1 <0>         0.5656
     28 O2         -2.1083    1.8771   -7.9616 O.2       1 <0>        -0.5115
     29 C23        -1.3410    8.8030   -9.6864 C.2       1 <0>         0.5076
     30 O3         -2.2936    8.9535  -10.4258 O.2       1 <0>        -0.4991
     31 O4         -0.5158    9.8375   -9.4315 O.3       1 <0>        -0.3470
     32 C24        -0.8208   11.0819  -10.0644 C.3       1 <0>         0.0335
     33 C25         1.3130    3.7949   -5.9098 C.ar      1 <0>        -0.0999
     34 C26         0.9559    4.9125   -5.1501 C.ar      1 <0>        -0.0850
     35 C27         1.9322    5.6503   -4.5143 C.ar      1 <0>        -0.1217
     36 C28         3.2627    5.2866   -4.6270 C.ar      1 <0>        -0.0912
     37 C29         3.6240    4.1813   -5.3774 C.ar      1 <0>        -0.1175
     38 C30         2.6584    3.4303   -6.0142 C.ar      1 <0>        -0.0764
     39 H1         -0.4780    0.0141    1.7324 H         1 <0>         0.0939
     40 H2         -0.3564   -1.6120    1.0188 H         1 <0>         0.0834
     41 H3          1.1121   -0.7686    1.5669 H         1 <0>         0.1014
     42 H4         -2.0073   -1.7544   -1.8226 H         1 <0>         0.0931
     43 H5         -1.5236   -1.8291   -0.1113 H         1 <0>         0.0990
     44 H6         -2.6915    0.3169    0.3124 H         1 <0>         0.0913
     45 H7         -3.1752    0.3915   -1.3989 H         1 <0>         0.0943
     46 H8         -4.4114   -1.7426   -1.1425 H         1 <0>         0.1345
     47 H9         -3.9277   -1.8173    0.5688 H         1 <0>         0.1333
     48 H10        -6.3218   -1.8560    1.0683 H         1 <0>         0.1229
     49 H11        -7.3439   -0.4976    0.5408 H         1 <0>         0.1249
     50 H12        -6.7155   -1.6556   -0.6560 H         1 <0>         0.1242
     51 H13        -4.1178    1.0271    1.2197 H         1 <0>         0.1234
     52 H14        -5.8527    1.0424    1.6176 H         1 <0>         0.1251
     53 H15        -4.8306   -0.3161    2.1450 H         1 <0>         0.1238
     54 H16        -0.0499   -1.7622   -3.3858 H         1 <0>         0.1286
     55 H17         0.2990   -0.8905   -5.6599 H         1 <0>         0.1333
     56 H18        -0.3446    3.0895   -4.2323 H         1 <0>         0.1298
     57 H19        -0.7029    2.2161   -1.9603 H         1 <0>         0.1218
     58 H20         0.2799    1.0371   -7.1290 H         1 <0>         0.4230
     59 H21         1.0979    5.9759   -6.9845 H         1 <0>         0.1433
     60 H22         0.6691    8.1501   -8.0145 H         1 <0>         0.1466
     61 H23        -2.7924    6.5531   -9.9905 H         1 <0>         0.1449
     62 H24        -3.1705    3.8096   -9.3552 H         1 <0>         0.4208
     63 H25        -1.8114   11.4141   -9.7540 H         1 <0>         0.0632
     64 H26        -0.0803   11.8276   -9.7753 H         1 <0>         0.1068
     65 H27        -0.8033   10.9530  -11.1466 H         1 <0>         0.0638
     66 H28        -0.0820    5.1978   -5.0616 H         1 <0>         0.1292
     67 H29         1.6578    6.5144   -3.9273 H         1 <0>         0.1327
     68 H30         4.0230    5.8685   -4.1271 H         1 <0>         0.1305
     69 H31         4.6643    3.9035   -5.4608 H         1 <0>         0.1315
     70 H32         2.9414    2.5652   -6.5955 H         1 <0>         0.1260
     71 H33        -5.4628    0.3734   -0.6379 H         1 <0>         0.4279
@<TRIPOS>BOND
     1    1    2 1
     2    1   39 1
     3    1   40 1
     4    1   41 1
     5    2    3 2
     6    2    4 am
     7    4    5 1
     8    4   11 1
     9    5    6 1
    10    5   42 1
    11    5   43 1
    12    6    7 1
    13    6   44 1
    14    6   45 1
    15    7    8 1
    16    7   46 1
    17    7   47 1
    18    8    9 1
    19    8   10 1
    20    8   71 1
    21    9   48 1
    22    9   49 1
    23    9   50 1
    24   10   51 1
    25   10   52 1
    26   10   53 1
    27   11   16 ar
    28   11   12 ar
    29   12   13 ar
    30   12   54 1
    31   13   14 ar
    32   13   55 1
    33   14   15 ar
    34   14   17 1
    35   15   16 ar
    36   15   56 1
    37   16   57 1
    38   17   18 1
    39   17   58 1
    40   18   19 2
    41   18   33 1
    42   19   27 1
    43   19   20 1
    44   20   25 ar
    45   20   21 ar
    46   21   22 ar
    47   21   59 1
    48   22   23 ar
    49   22   60 1
    50   23   24 ar
    51   23   29 1
    52   24   25 ar
    53   24   61 1
    54   25   26 1
    55   26   27 am
    56   26   62 1
    57   27   28 2
    58   29   30 2
    59   29   31 1
    60   31   32 1
    61   32   63 1
    62   32   64 1
    63   32   65 1
    64   33   38 ar
    65   33   34 ar
    66   34   35 ar
    67   34   66 1
    68   35   36 ar
    69   35   67 1
    70   36   37 ar
    71   36   68 1
    72   37   38 ar
    73   37   69 1
    74   38   70 1
@<TRIPOS>MOLECULE
CHEMBL525909__1
   71    74     0     0     0
SMALL
USER_CHARGES

@<TRIPOS>ATOM
      1 C1         -0.3952   -0.5588    0.5181 C.3       1 <0>        -0.1765
      2 C2         -0.1168    0.1316   -0.7922 C.2       1 <0>         0.5087
      3 O1          0.8606    0.8402   -0.9086 O.2       1 <0>        -0.5083
      4 N1         -0.9540   -0.0384   -1.8346 N.am      1 <0>        -0.5700
      5 C3         -2.1954   -0.7966   -1.6611 C.3       1 <0>         0.1125
      6 C4         -3.3327    0.1621   -1.3027 C.3       1 <0>        -0.1745
      7 C5         -4.6292   -0.6298   -1.1214 C.3       1 <0>        -0.0082
      8 N2         -5.7211    0.2907   -0.7773 N.4       1 <0>        -0.3873
      9 C6         -6.9876   -0.4513   -0.7207 C.3       1 <0>        -0.0476
     10 C7         -5.4526    0.9015    0.5315 C.3       1 <0>        -0.0535
     11 C8         -0.6370    0.5098   -3.0839 C.ar      1 <0>         0.0875
     12 C9         -0.3588   -0.3254   -4.1582 C.ar      1 <0>        -0.0774
     13 C10        -0.0460    0.2146   -5.3893 C.ar      1 <0>        -0.1583
     14 C11        -0.0100    1.5937   -5.5540 C.ar      1 <0>         0.1994
     15 C12        -0.2888    2.4289   -4.4793 C.ar      1 <0>        -0.1570
     16 C13        -0.6066    1.8883   -3.2497 C.ar      1 <0>        -0.0608
     17 N3          0.3074    2.1410   -6.8011 N.pl3     1 <0>        -0.6769
     18 C14         0.4995    3.4909   -6.9275 C.2       1 <0>         0.3295
     19 C15        -0.2916    4.2274   -7.8044 C.2       1 <0>        -0.2179
     20 C16        -1.4552    3.7445   -8.5725 C.ar      1 <0>        -0.0576
     21 C17        -2.0938    2.5092   -8.6714 C.ar      1 <0>        -0.0836
     22 C18        -3.1773    2.3641   -9.4891 C.ar      1 <0>        -0.0812
     23 C19        -3.6505    3.4540  -10.2300 C.ar      1 <0>        -0.0938
     24 C20        -3.0178    4.6956  -10.1379 C.ar      1 <0>        -0.0682
     25 C21        -1.9187    4.8473   -9.3099 C.ar      1 <0>         0.1352
     26 N4         -1.1044    5.9361   -9.0224 N.am      1 <0>        -0.6529
     27 C22        -0.1491    5.6000   -8.1396 C.2       1 <0>         0.5648
     28 O2          0.7040    6.3511   -7.6995 O.2       1 <0>        -0.4926
     29 C23        -4.8209    3.2901  -11.1110 C.2       1 <0>         0.5068
     30 O3         -5.2336    4.2343  -11.7550 O.2       1 <0>        -0.4965
     31 O4         -5.4332    2.0930  -11.2022 O.3       1 <0>        -0.3493
     32 C24        -6.5614    2.0062  -12.0750 C.3       1 <0>         0.0333
     33 C25         1.5445    4.1642   -6.1348 C.ar      1 <0>        -0.1018
     34 C26         2.8529    3.6724   -6.1356 C.ar      1 <0>        -0.0766
     35 C27         3.8249    4.3075   -5.3916 C.ar      1 <0>        -0.1254
     36 C28         3.5076    5.4290   -4.6454 C.ar      1 <0>        -0.0893
     37 C29         2.2143    5.9218   -4.6396 C.ar      1 <0>        -0.1229
     38 C30         1.2329    5.3008   -5.3832 C.ar      1 <0>        -0.0481
     39 H1         -1.0009    0.0910    1.1497 H         1 <0>         0.0940
     40 H2         -0.9329   -1.4885    0.3319 H         1 <0>         0.0837
     41 H3          0.5469   -0.7784    1.0205 H         1 <0>         0.1016
     42 H4         -2.4367   -1.3160   -2.5885 H         1 <0>         0.0932
     43 H5         -2.0677   -1.5245   -0.8598 H         1 <0>         0.0990
     44 H6         -3.0914    0.6814   -0.3752 H         1 <0>         0.0912
     45 H7         -3.4604    0.8899   -2.1040 H         1 <0>         0.0944
     46 H8         -4.8705   -1.1491   -2.0488 H         1 <0>         0.1345
     47 H9         -4.5014   -1.3576   -0.3201 H         1 <0>         0.1332
     48 H10        -6.9179   -1.2318    0.0371 H         1 <0>         0.1229
     49 H11        -7.7978    0.2317   -0.4654 H         1 <0>         0.1249
     50 H12        -7.1869   -0.9046   -1.6918 H         1 <0>         0.1243
     51 H13        -4.5128    1.4521    0.4895 H         1 <0>         0.1235
     52 H14        -6.2627    1.5845    0.7868 H         1 <0>         0.1253
     53 H15        -5.3829    0.1211    1.2892 H         1 <0>         0.1239
     54 H16        -0.3868   -1.3974   -4.0302 H         1 <0>         0.1292
     55 H17         0.1710   -0.4349   -6.2245 H         1 <0>         0.1340
     56 H18        -0.2605    3.5009   -4.6070 H         1 <0>         0.1307
     57 H19        -0.8277    2.5375   -2.4154 H         1 <0>         0.1225
     58 H20         0.3914    1.5645   -7.5767 H         1 <0>         0.4202
     59 H21        -1.7311    1.6667   -8.1012 H         1 <0>         0.1314
     60 H22        -3.6704    1.4063   -9.5651 H         1 <0>         0.1444
     61 H23        -3.3844    5.5345  -10.7110 H         1 <0>         0.1457
     62 H24        -1.2138    6.8209   -9.4044 H         1 <0>         0.4223
     63 H25        -6.2550    2.2567  -13.0907 H         1 <0>         0.0645
     64 H26        -6.9589    0.9915  -12.0552 H         1 <0>         0.1059
     65 H27        -7.3307    2.7043  -11.7450 H         1 <0>         0.0630
     66 H28         3.1019    2.7971   -6.7172 H         1 <0>         0.1223
     67 H29         4.8362    3.9285   -5.3909 H         1 <0>         0.1285
     68 H30         4.2730    5.9220   -4.0643 H         1 <0>         0.1272
     69 H31         1.9741    6.7974   -4.0549 H         1 <0>         0.1275
     70 H32         0.2252    5.6893   -5.3816 H         1 <0>         0.1200
     71 H33        -5.7856    1.0132   -1.4787 H         1 <0>         0.4279
@<TRIPOS>BOND
     1    1    2 1
     2    1   39 1
     3    1   40 1
     4    1   41 1
     5    2    3 2
     6    2    4 am
     7    4    5 1
     8    4   11 1
     9    5    6 1
    10    5   42 1
    11    5   43 1
    12    6    7 1
    13    6   44 1
    14    6   45 1
    15    7    8 1
    16    7   46 1
    17    7   47 1
    18    8    9 1
    19    8   10 1
    20    8   71 1
    21    9   48 1
    22    9   49 1
    23    9   50 1
    24   10   51 1
    25   10   52 1
    26   10   53 1
    27   11   16 ar
    28   11   12 ar
    29   12   13 ar
    30   12   54 1
    31   13   14 ar
    32   13   55 1
    33   14   15 ar
    34   14   17 1
    35   15   16 ar
    36   15   56 1
    37   16   57 1
    38   17   18 1
    39   17   58 1
    40   18   19 2
    41   18   33 1
    42   19   27 1
    43   19   20 1
    44   20   25 ar
    45   20   21 ar
    46   21   22 ar
    47   21   59 1
    48   22   23 ar
    49   22   60 1
    50   23   24 ar
    51   23   29 1
    52   24   25 ar
    53   24   61 1
    54   25   26 1
    55   26   27 am
    56   26   62 1
    57   27   28 2
    58   29   30 2
    59   29   31 1
    60   31   32 1
    61   32   63 1
    62   32   64 1
    63   32   65 1
    64   33   38 ar
    65   33   34 ar
    66   34   35 ar
    67   34   66 1
    68   35   36 ar
    69   35   67 1
    70   36   37 ar
    71   36   68 1
    72   37   38 ar
    73   37   69 1
    74   38   70 1
@<TRIPOS>MOLECULE
CHEMBL368189
   68    72     0     0     0
SMALL
USER_CHARGES

@<TRIPOS>ATOM
      1 C1         -0.0178    1.4648    0.0101 C.3       1 <0>        -0.0451
      2 N1          0.0021   -0.0041    0.0020 N.4       1 <0>        -0.3884
      3 C2         -1.3761   -0.5122    0.0107 C.3       1 <0>        -0.0021
      4 C3         -1.3560   -2.0421   -0.0167 C.3       1 <0>         0.0250
      5 N2         -0.6244   -2.5407    1.1564 N.3       1 <0>        -0.5391
      6 C4          0.7499   -2.0201    1.1745 C.3       1 <0>         0.0190
      7 C5          0.7125   -0.4904    1.1921 C.3       1 <0>        -0.0026
      8 C6         -0.6316   -4.0091    1.1963 C.3       1 <0>         0.0605
      9 C7         -0.0856   -4.4853    2.5439 C.3       1 <0>        -0.1324
     10 C8         -0.0931   -6.0148    2.5855 C.3       1 <0>         0.1471
     11 N3          0.4297   -6.4708    3.8758 N.pl3     1 <0>        -0.7100
     12 C9          0.5190   -7.8231    4.1463 C.ar      1 <0>         0.5796
     13 N4          0.1275   -8.6879    3.2131 N.ar      1 <0>        -0.6042
     14 C10         0.1892   -9.9890    3.4135 C.ar      1 <0>         0.2489
     15 C11         0.6815  -10.4550    4.6442 C.ar      1 <0>        -0.3127
     16 C12         0.7787  -11.8266    4.9332 C.ar      1 <0>         0.0067
     17 C13         1.2760  -12.1957    6.1721 C.ar      1 <0>        -0.1270
     18 C14         1.6636  -11.1954    7.0908 C.ar      1 <0>         0.5253
     19 N5          1.5627   -9.9147    6.7960 N.ar      1 <0>        -0.6097
     20 C15         1.0903   -9.5056    5.6170 C.ar      1 <0>         0.4514
     21 N6          0.9939   -8.2043    5.3169 N.ar      1 <0>        -0.5800
     22 N7          2.1591  -11.5678    8.3265 N.2       1 <0>        -1.0398
     23 S1          2.6188  -10.4098    9.4174 S.o2      1 <0>         2.6346
     24 O1          3.7458   -9.7493    8.8579 O.2       1 <0>        -1.0087
     25 O2          1.4379   -9.7148    9.7938 O.2       1 <0>        -1.0082
     26 C16         3.1903  -11.2485   10.8577 C.ar      1 <0>        -0.6287
     27 C17         2.3041  -11.5659   11.8700 C.ar      1 <0>        -0.0234
     28 C18         2.7524  -12.2239   13.0000 C.ar      1 <0>        -0.1466
     29 C19         4.0869  -12.5649   13.1175 C.ar      1 <0>        -0.0817
     30 C20         4.9729  -12.2483   12.1048 C.ar      1 <0>        -0.1467
     31 C21         4.5238  -11.5941   10.9729 C.ar      1 <0>        -0.0236
     32 C22         1.4002  -13.6288    6.5309 C.ar      1 <0>         0.0324
     33 C23         0.3390  -14.2905    7.1490 C.ar      1 <0>        -0.0077
     34 C24         0.4608  -15.6259    7.4804 C.ar      1 <0>        -0.1107
     35 C25         1.6317  -16.3069    7.2007 C.ar      1 <0>        -0.1058
     36 C26         2.6877  -15.6564    6.5884 C.ar      1 <0>        -0.1107
     37 C27         2.5764  -14.3226    6.2468 C.ar      1 <0>        -0.0076
     38 Cl1         3.9000  -13.5099    5.4714 Cl        1 <0>        -0.0572
     39 Cl2        -1.1312  -13.4373    7.5014 Cl        1 <0>        -0.0566
     40 H1          1.0047    1.8421    0.0024 H         1 <0>         0.1232
     41 H2         -0.5450    1.8259   -0.8730 H         1 <0>         0.1228
     42 H3         -0.5280    1.8163    0.9069 H         1 <0>         0.1226
     43 H4         -1.8832   -0.1716    0.9134 H         1 <0>         0.1373
     44 H5         -1.9060   -0.1400   -0.8661 H         1 <0>         0.1343
     45 H6         -2.3783   -2.4196    0.0047 H         1 <0>         0.1240
     46 H7         -0.8610   -2.3831   -0.9260 H         1 <0>         0.0603
     47 H8          1.2641   -2.3816    2.0650 H         1 <0>         0.1276
     48 H9          1.2796   -2.3607    0.2848 H         1 <0>         0.0612
     49 H10         1.7310   -0.1020    1.1912 H         1 <0>         0.1350
     50 H11         0.1947   -0.1499    2.0888 H         1 <0>         0.1378
     51 H12        -1.6519   -4.3710    1.0694 H         1 <0>         0.0932
     52 H13        -0.0057   -4.3975    0.3929 H         1 <0>         0.0513
     53 H14         0.9347   -4.1235    2.6709 H         1 <0>         0.0690
     54 H15        -0.7115   -4.0969    3.3473 H         1 <0>         0.0829
     55 H16        -1.1134   -6.3766    2.4585 H         1 <0>         0.0649
     56 H17         0.5328   -6.4032    1.7821 H         1 <0>         0.0618
     57 H18         0.7132   -5.8235    4.5404 H         1 <0>         0.4103
     58 H19        -0.1316  -10.6814    2.6492 H         1 <0>         0.1639
     59 H20         0.4745  -12.5704    4.2116 H         1 <0>         0.1320
     60 H21         1.2615  -11.2995   11.7782 H         1 <0>         0.1347
     61 H22         2.0602  -12.4712   13.7912 H         1 <0>         0.1259
     62 H23         4.4373  -13.0783   14.0006 H         1 <0>         0.1236
     63 H24         6.0156  -12.5144   12.1967 H         1 <0>         0.1258
     64 H25         5.2153  -11.3500   10.1800 H         1 <0>         0.1346
     65 H26        -0.3599  -16.1392    7.9593 H         1 <0>         0.1345
     66 H27         1.7220  -17.3510    7.4618 H         1 <0>         0.1353
     67 H28         3.5995  -16.1936    6.3730 H         1 <0>         0.1344
     68 H29         0.4748   -0.3293   -0.8280 H         1 <0>         0.4220
@<TRIPOS>BOND
     1    1    2 1
     2    1   40 1
     3    1   41 1
     4    1   42 1
     5    2    7 1
     6    2    3 1
     7    2   68 1
     8    3    4 1
     9    3   43 1
    10    3   44 1
    11    4    5 1
    12    4   45 1
    13    4   46 1
    14    5    6 1
    15    5    8 1
    16    6    7 1
    17    6   47 1
    18    6   48 1
    19    7   49 1
    20    7   50 1
    21    8    9 1
    22    8   51 1
    23    8   52 1
    24    9   10 1
    25    9   53 1
    26    9   54 1
    27   10   11 1
    28   10   55 1
    29   10   56 1
    30   11   12 1
    31   11   57 1
    32   12   21 ar
    33   12   13 ar
    34   13   14 ar
    35   14   15 ar
    36   14   58 1
    37   15   20 ar
    38   15   16 ar
    39   16   17 ar
    40   16   59 1
    41   17   18 ar
    42   17   32 1
    43   18   19 ar
    44   18   22 1
    45   19   20 ar
    46   20   21 ar
    47   22   23 1
    48   23   24 2
    49   23   25 2
    50   23   26 1
    51   26   31 ar
    52   26   27 ar
    53   27   28 ar
    54   27   60 1
    55   28   29 ar
    56   28   61 1
    57   29   30 ar
    58   29   62 1
    59   30   31 ar
    60   30   63 1
    61   31   64 1
    62   32   37 ar
    63   32   33 ar
    64   33   34 ar
    65   33   39 1
    66   34   35 ar
    67   34   65 1
    68   35   36 ar
    69   35   66 1
    70   36   37 ar
    71   36   67 1
    72   37   38 1
@<TRIPOS>MOLECULE
CHEMBL368189__1
   68    72     0     0     0
SMALL
USER_CHARGES

@<TRIPOS>ATOM
      1 C1         -0.0178    1.4648    0.0101 C.3       1 <0>         0.0200
      2 N1          0.0021   -0.0041    0.0020 N.3       1 <0>        -0.5440
      3 C2         -1.3607   -0.5489   -0.0764 C.3       1 <0>         0.0245
      4 C3         -1.2932   -2.0762   -0.1426 C.3       1 <0>        -0.0016
      5 N2         -0.6107   -2.5886    1.0529 N.4       1 <0>        -0.3862
      6 C4          0.7570   -2.0553    1.1043 C.3       1 <0>        -0.0079
      7 C5          0.7065   -0.5278    1.1808 C.3       1 <0>         0.0251
      8 C6         -0.5621   -4.0557    0.9977 C.3       1 <0>        -0.0025
      9 C7          0.0360   -4.5955    2.2984 C.3       1 <0>        -0.1655
     10 C8          0.0866   -6.1236    2.2409 C.3       1 <0>         0.1526
     11 N3          0.6594   -6.6404    3.4863 N.pl3     1 <0>        -0.7135
     12 C9          0.8060   -8.0028    3.6663 C.ar      1 <0>         0.5767
     13 N4          0.4230   -8.8208    2.6884 N.ar      1 <0>        -0.6071
     14 C10         0.5384  -10.1287    2.8025 C.ar      1 <0>         0.2495
     15 C11         1.0794  -10.6529    3.9885 C.ar      1 <0>        -0.3090
     16 C12         1.2351  -12.0353    4.1856 C.ar      1 <0>         0.0043
     17 C13         1.7778  -12.4632    5.3859 C.ar      1 <0>        -0.1218
     18 C14         2.1514  -11.5094    6.3583 C.ar      1 <0>         0.5253
     19 N5          1.9953  -10.2173    6.1496 N.ar      1 <0>        -0.6092
     20 C15         1.4775   -9.7524    5.0110 C.ar      1 <0>         0.4507
     21 N6          1.3250   -8.4392    4.7983 N.ar      1 <0>        -0.5765
     22 N7          2.6923  -11.9404    7.5552 N.2       1 <0>        -1.0373
     23 S1          3.1366  -10.8374    8.7079 S.o2      1 <0>         2.6357
     24 O1          4.2233  -10.0993    8.1662 O.2       1 <0>        -1.0080
     25 O2          1.9407  -10.2144    9.1561 O.2       1 <0>        -1.0080
     26 C16         3.7761  -11.7436   10.0770 C.ar      1 <0>        -0.6297
     27 C17         2.9288  -12.1593   11.0871 C.ar      1 <0>        -0.0234
     28 C18         3.4305  -12.8703   12.1612 C.ar      1 <0>        -0.1463
     29 C19         4.7794  -13.1659   12.2250 C.ar      1 <0>        -0.0808
     30 C20         5.6265  -12.7510   11.2145 C.ar      1 <0>        -0.1463
     31 C21         5.1240  -12.0438   10.1382 C.ar      1 <0>        -0.0235
     32 C22         1.9646  -13.9104    5.6481 C.ar      1 <0>         0.0295
     33 C23         0.9452  -14.6510    6.2466 C.ar      1 <0>        -0.0074
     34 C24         1.1252  -15.9991    6.4878 C.ar      1 <0>        -0.1103
     35 C25         2.3131  -16.6148    6.1371 C.ar      1 <0>        -0.1046
     36 C26         3.3279  -15.8859    5.5438 C.ar      1 <0>        -0.1102
     37 C27         3.1582  -14.5384    5.2920 C.ar      1 <0>        -0.0073
     38 Cl1         4.4300  -13.6269    4.5402 Cl        1 <0>        -0.0568
     39 Cl2        -0.5462  -13.8799    6.6880 Cl        1 <0>        -0.0569
     40 H1          1.0047    1.8421    0.0024 H         1 <0>         0.0835
     41 H2         -0.5450    1.8259   -0.8730 H         1 <0>         0.0825
     42 H3         -0.5280    1.8163    0.9069 H         1 <0>         0.0388
     43 H4         -1.9242   -0.2477    0.8067 H         1 <0>         0.0598
     44 H5         -1.8539   -0.1676   -0.9705 H         1 <0>         0.1225
     45 H6         -2.3035   -2.4830   -0.1865 H         1 <0>         0.1364
     46 H7         -0.7413   -2.3773   -1.0330 H         1 <0>         0.1381
     47 H8          1.2666   -2.4465    1.9848 H         1 <0>         0.1387
     48 H9          1.2983   -2.3564    0.2075 H         1 <0>         0.1389
     49 H10         1.7215   -0.1310    1.2040 H         1 <0>         0.1232
     50 H11         0.1771   -0.2262    2.0846 H         1 <0>         0.0605
     51 H12        -1.5711   -4.4482    0.8715 H         1 <0>         0.1362
     52 H13         0.0569   -4.3674    0.1563 H         1 <0>         0.1355
     53 H14         1.0451   -4.2031    2.4246 H         1 <0>         0.0932
     54 H15        -0.5829   -4.2839    3.1397 H         1 <0>         0.0931
     55 H16        -0.9224   -6.5160    2.1146 H         1 <0>         0.0717
     56 H17         0.7056   -6.4352    1.3995 H         1 <0>         0.0720
     57 H18         0.9356   -6.0264    4.1846 H         1 <0>         0.4114
     58 H19         0.2240  -10.7827    2.0026 H         1 <0>         0.1652
     59 H20         0.9404  -12.7427    3.4246 H         1 <0>         0.1333
     60 H21         1.8750  -11.9283   11.0372 H         1 <0>         0.1346
     61 H22         2.7687  -13.1944   12.9507 H         1 <0>         0.1263
     62 H23         5.1715  -13.7208   13.0645 H         1 <0>         0.1242
     63 H24         6.6803  -12.9817   11.2645 H         1 <0>         0.1263
     64 H25         5.7852  -11.7229    9.3469 H         1 <0>         0.1347
     65 H26         0.3369  -16.5735    6.9514 H         1 <0>         0.1350
     66 H27         2.4490  -17.6691    6.3278 H         1 <0>         0.1360
     67 H28         4.2533  -16.3723    5.2726 H         1 <0>         0.1350
     68 H29        -1.1152   -2.2999    1.8777 H         1 <0>         0.4207
@<TRIPOS>BOND
     1    1    2 1
     2    1   40 1
     3    1   41 1
     4    1   42 1
     5    2    7 1
     6    2    3 1
     7    3    4 1
     8    3   43 1
     9    3   44 1
    10    4    5 1
    11    4   45 1
    12    4   46 1
    13    5    6 1
    14    5    8 1
    15    5   68 1
    16    6    7 1
    17    6   47 1
    18    6   48 1
    19    7   49 1
    20    7   50 1
    21    8    9 1
    22    8   51 1
    23    8   52 1
    24    9   10 1
    25    9   53 1
    26    9   54 1
    27   10   11 1
    28   10   55 1
    29   10   56 1
    30   11   12 1
    31   11   57 1
    32   12   21 ar
    33   12   13 ar
    34   13   14 ar
    35   14   15 ar
    36   14   58 1
    37   15   20 ar
    38   15   16 ar
    39   16   17 ar
    40   16   59 1
    41   17   18 ar
    42   17   32 1
    43   18   19 ar
    44   18   22 1
    45   19   20 ar
    46   20   21 ar
    47   22   23 1
    48   23   24 2
    49   23   25 2
    50   23   26 1
    51   26   31 ar
    52   26   27 ar
    53   27   28 ar
    54   27   60 1
    55   28   29 ar
    56   28   61 1
    57   29   30 ar
    58   29   62 1
    59   30   31 ar
    60   30   63 1
    61   31   64 1
    62   32   37 ar
    63   32   33 ar
    64   33   34 ar
    65   33   39 1
    66   34   35 ar
    67   34   65 1
    68   35   36 ar
    69   35   66 1
    70   36   37 ar
    71   36   67 1
    72   37   38 1
@<TRIPOS>MOLECULE
CHEMBL190405
   80    83     0     0     0
SMALL
USER_CHARGES

@<TRIPOS>ATOM
      1 C1         -0.0187    1.5258    0.0104 C.3       1 <0>        -0.1656
      2 C2          0.0021   -0.0041    0.0020 C.3       1 <0>         0.1879
      3 C3          0.7421   -0.5109    1.2415 C.3       1 <0>        -0.1656
      4 C4         -1.4333   -0.5336    0.0129 C.3       1 <0>        -0.1558
      5 N1          0.6878   -0.4765   -1.2033 N.am      1 <0>        -0.7366
      6 C5          1.9715   -0.1323   -1.4270 C.2       1 <0>         0.6938
      7 O1          2.5604    0.5703   -0.6286 O.2       1 <0>        -0.5137
      8 N2          2.6023   -0.5669   -2.5359 N.am      1 <0>        -0.6664
      9 C6          3.9247   -0.2123   -2.7663 C.ar      1 <0>         0.4500
     10 C7          4.5693   -0.6712   -3.9356 C.ar      1 <0>        -0.1612
     11 C8          5.8881   -0.3212   -4.1717 C.ar      1 <0>         0.0292
     12 C9          6.5368    0.4880   -3.2221 C.ar      1 <0>        -0.2400
     13 C10         7.8708    0.8895   -3.3824 C.ar      1 <0>         0.2199
     14 N3          8.4455    1.6459   -2.4759 N.ar      1 <0>        -0.5394
     15 C11         7.8088    2.0618   -1.3834 C.ar      1 <0>         0.4095
     16 C12         6.4944    1.7182   -1.1375 C.ar      1 <0>        -0.2407
     17 C13         5.8226    0.9111   -2.0693 C.ar      1 <0>         0.2385
     18 N4          4.5491    0.5491   -1.8926 N.ar      1 <0>        -0.4810
     19 N5          8.4837    2.8609   -0.4679 N.pl3     1 <0>        -0.7212
     20 C14         7.7998    3.3283    0.7404 C.3       1 <0>         0.1251
     21 C15         8.7592    4.1828    1.5712 C.3       1 <0>        -0.1291
     22 C16         8.0449    4.6711    2.8331 C.3       1 <0>        -0.1135
     23 C17         9.0043    5.5256    3.6639 C.3       1 <0>        -0.1181
     24 C18         8.2901    6.0138    4.9258 C.3       1 <0>         0.0584
     25 O2          9.1862    6.8119    5.7018 O.3       1 <0>        -0.3162
     26 C19         8.7050    7.3272    6.8636 C.ar      1 <0>         0.1295
     27 C20         7.3991    7.0652    7.2517 C.ar      1 <0>        -0.2102
     28 C21         6.9125    7.5898    8.4334 C.ar      1 <0>        -0.0804
     29 C22         7.7257    8.3757    9.2289 C.ar      1 <0>        -0.1595
     30 C23         9.0275    8.6386    8.8441 C.ar      1 <0>        -0.0805
     31 C24         9.5207    8.1113    7.6664 C.ar      1 <0>        -0.1540
     32 C25         3.8387   -1.5231   -4.9046 C.ar      1 <0>         0.0420
     33 C26         3.1397   -2.6438   -4.4607 C.ar      1 <0>        -0.1989
     34 C27         2.4582   -3.4378   -5.3688 C.ar      1 <0>         0.1767
     35 C28         2.4715   -3.1183   -6.7187 C.ar      1 <0>        -0.2976
     36 C29         3.1664   -2.0032   -7.1640 C.ar      1 <0>         0.1765
     37 C30         3.8449   -1.2016   -6.2604 C.ar      1 <0>        -0.1741
     38 O3          3.1769   -1.6937   -8.4872 O.3       1 <0>        -0.3103
     39 C31         2.4514   -2.5601   -9.3619 C.3       1 <0>         0.0252
     40 O4          1.7762   -4.5310   -4.9368 O.3       1 <0>        -0.3111
     41 C32         1.0960   -5.3046   -5.9272 C.3       1 <0>         0.0250
     42 H1          1.0039    1.9031    0.0027 H         1 <0>         0.0812
     43 H2         -0.5459    1.8868   -0.8726 H         1 <0>         0.0524
     44 H3         -0.5289    1.8773    0.9072 H         1 <0>         0.0632
     45 H4          0.2319   -0.1594    2.1383 H         1 <0>         0.0631
     46 H5          0.7568   -1.6008    1.2356 H         1 <0>         0.0528
     47 H6          1.7647   -0.1336    1.2338 H         1 <0>         0.0812
     48 H7         -1.9605   -0.1726   -0.8702 H         1 <0>         0.0620
     49 H8         -1.4185   -1.6235    0.0069 H         1 <0>         0.0624
     50 H9         -1.9435   -0.1821    0.9097 H         1 <0>         0.0761
     51 H10         0.2179   -1.0371   -1.8404 H         1 <0>         0.3942
     52 H11         2.1325   -1.1275   -3.1729 H         1 <0>         0.4149
     53 H12         6.4032   -0.6599   -5.0584 H         1 <0>         0.1508
     54 H13         8.4269    0.5757   -4.2534 H         1 <0>         0.1687
     55 H14         5.9925    2.0642   -0.2459 H         1 <0>         0.1416
     56 H15         9.4075    3.1089   -0.6290 H         1 <0>         0.4059
     57 H16         6.9323    3.9254    0.4590 H         1 <0>         0.0673
     58 H17         7.4748    2.4704    1.3290 H         1 <0>         0.0673
     59 H18         9.6266    3.5858    1.8527 H         1 <0>         0.0734
     60 H19         9.0841    5.0408    0.9827 H         1 <0>         0.0734
     61 H20         7.1775    5.2681    2.5517 H         1 <0>         0.0709
     62 H21         7.7200    3.8131    3.4217 H         1 <0>         0.0709
     63 H22         9.8718    4.9285    3.9454 H         1 <0>         0.0757
     64 H23         9.3293    6.3835    3.0754 H         1 <0>         0.0757
     65 H24         7.4226    6.6108    4.6444 H         1 <0>         0.0630
     66 H25         7.9651    5.1558    5.5144 H         1 <0>         0.0630
     67 H26         6.7633    6.4520    6.6303 H         1 <0>         0.1272
     68 H27         5.8960    7.3862    8.7360 H         1 <0>         0.1248
     69 H28         7.3433    8.7852   10.1522 H         1 <0>         0.1240
     70 H29         9.6606    9.2531    9.4670 H         1 <0>         0.1295
     71 H30        10.5390    8.3133    7.3684 H         1 <0>         0.1302
     72 H31         3.1296   -2.8935   -3.4101 H         1 <0>         0.1349
     73 H32         1.9400   -3.7392   -7.4246 H         1 <0>         0.1373
     74 H33         4.3820   -0.3311   -6.6071 H         1 <0>         0.1380
     75 H34         2.8585   -3.5690   -9.2938 H         1 <0>         0.0570
     76 H35         1.4007   -2.5720   -9.0723 H         1 <0>         0.0566
     77 H36         2.5417   -2.2003  -10.3868 H         1 <0>         0.1045
     78 H37         0.3590   -4.6805   -6.4327 H         1 <0>         0.0570
     79 H38         1.8166   -5.6777   -6.6549 H         1 <0>         0.0571
     80 H39         0.5935   -6.1456   -5.4494 H         1 <0>         0.1044
@<TRIPOS>BOND
     1    1    2 1
     2    1   42 1
     3    1   43 1
     4    1   44 1
     5    2    3 1
     6    2    4 1
     7    2    5 1
     8    3   45 1
     9    3   46 1
    10    3   47 1
    11    4   48 1
    12    4   49 1
    13    4   50 1
    14    5    6 am
    15    5   51 1
    16    6    7 2
    17    6    8 am
    18    8    9 1
    19    8   52 1
    20    9   18 ar
    21    9   10 ar
    22   10   11 ar
    23   10   32 1
    24   11   12 ar
    25   11   53 1
    26   12   17 ar
    27   12   13 ar
    28   13   14 ar
    29   13   54 1
    30   14   15 ar
    31   15   16 ar
    32   15   19 1
    33   16   17 ar
    34   16   55 1
    35   17   18 ar
    36   19   20 1
    37   19   56 1
    38   20   21 1
    39   20   57 1
    40   20   58 1
    41   21   22 1
    42   21   59 1
    43   21   60 1
    44   22   23 1
    45   22   61 1
    46   22   62 1
    47   23   24 1
    48   23   63 1
    49   23   64 1
    50   24   25 1
    51   24   65 1
    52   24   66 1
    53   25   26 1
    54   26   31 ar
    55   26   27 ar
    56   27   28 ar
    57   27   67 1
    58   28   29 ar
    59   28   68 1
    60   29   30 ar
    61   29   69 1
    62   30   31 ar
    63   30   70 1
    64   31   71 1
    65   32   37 ar
    66   32   33 ar
    67   33   34 ar
    68   33   72 1
    69   34   35 ar
    70   34   40 1
    71   35   36 ar
    72   35   73 1
    73   36   37 ar
    74   36   38 1
    75   37   74 1
    76   38   39 1
    77   39   75 1
    78   39   76 1
    79   39   77 1
    80   40   41 1
    81   41   78 1
    82   41   79 1
    83   41   80 1
@<TRIPOS>MOLECULE
CHEMBL189322
   77    80     0     0     0
SMALL
USER_CHARGES

@<TRIPOS>ATOM
      1 C1         -0.0187    1.5258    0.0104 C.3       1 <0>        -0.1657
      2 C2          0.0021   -0.0041    0.0020 C.3       1 <0>         0.1878
      3 C3          0.7421   -0.5109    1.2415 C.3       1 <0>        -0.1656
      4 C4         -1.4333   -0.5336    0.0129 C.3       1 <0>        -0.1557
      5 N1          0.6878   -0.4765   -1.2033 N.am      1 <0>        -0.7365
      6 C5          1.9715   -0.1323   -1.4270 C.2       1 <0>         0.6936
      7 O1          2.5604    0.5703   -0.6286 O.2       1 <0>        -0.5133
      8 N2          2.6023   -0.5669   -2.5359 N.am      1 <0>        -0.6664
      9 C6          3.9247   -0.2123   -2.7663 C.ar      1 <0>         0.4501
     10 C7          4.5693   -0.6712   -3.9356 C.ar      1 <0>        -0.1608
     11 C8          5.8881   -0.3212   -4.1717 C.ar      1 <0>         0.0289
     12 C9          6.5368    0.4880   -3.2221 C.ar      1 <0>        -0.2397
     13 C10         7.8708    0.8895   -3.3824 C.ar      1 <0>         0.2197
     14 N3          8.4455    1.6459   -2.4759 N.ar      1 <0>        -0.5395
     15 C11         7.8088    2.0618   -1.3834 C.ar      1 <0>         0.4092
     16 C12         6.4944    1.7182   -1.1375 C.ar      1 <0>        -0.2399
     17 C13         5.8226    0.9111   -2.0693 C.ar      1 <0>         0.2385
     18 N4          4.5491    0.5491   -1.8926 N.ar      1 <0>        -0.4807
     19 N5          8.4837    2.8609   -0.4679 N.pl3     1 <0>        -0.7217
     20 C14         7.7998    3.3283    0.7404 C.3       1 <0>         0.1270
     21 C15         8.7592    4.1828    1.5712 C.3       1 <0>        -0.1272
     22 C16         8.0449    4.6711    2.8331 C.3       1 <0>        -0.1161
     23 C17         9.0043    5.5256    3.6639 C.3       1 <0>         0.0604
     24 O2          8.3372    5.9815    4.8425 O.3       1 <0>        -0.3151
     25 C18         9.0544    6.7591    5.6957 C.ar      1 <0>         0.1296
     26 C19        10.3714    7.0814    5.4017 C.ar      1 <0>        -0.2103
     27 C20        11.0981    7.8724    6.2703 C.ar      1 <0>        -0.0806
     28 C21        10.5142    8.3423    7.4322 C.ar      1 <0>        -0.1593
     29 C22         9.2020    8.0222    7.7277 C.ar      1 <0>        -0.0803
     30 C23         8.4691    7.2366    6.8593 C.ar      1 <0>        -0.1533
     31 C24         3.8387   -1.5231   -4.9046 C.ar      1 <0>         0.0419
     32 C25         3.1397   -2.6438   -4.4607 C.ar      1 <0>        -0.1989
     33 C26         2.4582   -3.4378   -5.3688 C.ar      1 <0>         0.1767
     34 C27         2.4715   -3.1183   -6.7187 C.ar      1 <0>        -0.2976
     35 C28         3.1664   -2.0032   -7.1640 C.ar      1 <0>         0.1765
     36 C29         3.8449   -1.2016   -6.2604 C.ar      1 <0>        -0.1740
     37 O3          3.1769   -1.6937   -8.4872 O.3       1 <0>        -0.3104
     38 C30         2.4514   -2.5601   -9.3619 C.3       1 <0>         0.0252
     39 O4          1.7762   -4.5310   -4.9368 O.3       1 <0>        -0.3111
     40 C31         1.0960   -5.3046   -5.9272 C.3       1 <0>         0.0250
     41 H1          1.0039    1.9031    0.0027 H         1 <0>         0.0813
     42 H2         -0.5459    1.8868   -0.8726 H         1 <0>         0.0524
     43 H3         -0.5289    1.8773    0.9072 H         1 <0>         0.0634
     44 H4          0.2319   -0.1594    2.1383 H         1 <0>         0.0633
     45 H5          0.7568   -1.6008    1.2356 H         1 <0>         0.0527
     46 H6          1.7647   -0.1336    1.2338 H         1 <0>         0.0813
     47 H7         -1.9605   -0.1726   -0.8702 H         1 <0>         0.0619
     48 H8         -1.4185   -1.6235    0.0069 H         1 <0>         0.0623
     49 H9         -1.9435   -0.1821    0.9097 H         1 <0>         0.0762
     50 H10         0.2179   -1.0371   -1.8404 H         1 <0>         0.3942
     51 H11         2.1325   -1.1275   -3.1729 H         1 <0>         0.4148
     52 H12         6.4032   -0.6599   -5.0584 H         1 <0>         0.1508
     53 H13         8.4269    0.5757   -4.2534 H         1 <0>         0.1688
     54 H14         5.9925    2.0642   -0.2459 H         1 <0>         0.1421
     55 H15         9.4075    3.1089   -0.6290 H         1 <0>         0.4057
     56 H16         6.9323    3.9254    0.4590 H         1 <0>         0.0695
     57 H17         7.4748    2.4704    1.3290 H         1 <0>         0.0695
     58 H18         9.6266    3.5858    1.8527 H         1 <0>         0.0749
     59 H19         9.0841    5.0408    0.9827 H         1 <0>         0.0749
     60 H20         7.1775    5.2681    2.5517 H         1 <0>         0.0800
     61 H21         7.7200    3.8131    3.4217 H         1 <0>         0.0800
     62 H22         9.8718    4.9285    3.9454 H         1 <0>         0.0633
     63 H23         9.3293    6.3835    3.0754 H         1 <0>         0.0634
     64 H24        10.8281    6.7140    4.4946 H         1 <0>         0.1268
     65 H25        12.1234    8.1236    6.0419 H         1 <0>         0.1247
     66 H26        11.0842    8.9603    8.1102 H         1 <0>         0.1241
     67 H27         8.7483    8.3902    8.6361 H         1 <0>         0.1297
     68 H28         7.4428    6.9905    7.0884 H         1 <0>         0.1307
     69 H29         3.1296   -2.8935   -3.4101 H         1 <0>         0.1349
     70 H30         1.9400   -3.7392   -7.4246 H         1 <0>         0.1373
     71 H31         4.3820   -0.3311   -6.6071 H         1 <0>         0.1380
     72 H32         1.4007   -2.5720   -9.0723 H         1 <0>         0.0566
     73 H33         2.5417   -2.2003  -10.3868 H         1 <0>         0.1045
     74 H34         2.8585   -3.5690   -9.2938 H         1 <0>         0.0570
     75 H35         0.3590   -4.6805   -6.4327 H         1 <0>         0.0570
     76 H36         1.8166   -5.6777   -6.6549 H         1 <0>         0.0571
     77 H37         0.5935   -6.1456   -5.4494 H         1 <0>         0.1044
@<TRIPOS>BOND
     1    1    2 1
     2    1   41 1
     3    1   42 1
     4    1   43 1
     5    2    3 1
     6    2    4 1
     7    2    5 1
     8    3   44 1
     9    3   45 1
    10    3   46 1
    11    4   47 1
    12    4   48 1
    13    4   49 1
    14    5    6 am
    15    5   50 1
    16    6    7 2
    17    6    8 am
    18    8    9 1
    19    8   51 1
    20    9   18 ar
    21    9   10 ar
    22   10   11 ar
    23   10   31 1
    24   11   12 ar
    25   11   52 1
    26   12   17 ar
    27   12   13 ar
    28   13   14 ar
    29   13   53 1
    30   14   15 ar
    31   15   16 ar
    32   15   19 1
    33   16   17 ar
    34   16   54 1
    35   17   18 ar
    36   19   20 1
    37   19   55 1
    38   20   21 1
    39   20   56 1
    40   20   57 1
    41   21   22 1
    42   21   58 1
    43   21   59 1
    44   22   23 1
    45   22   60 1
    46   22   61 1
    47   23   24 1
    48   23   62 1
    49   23   63 1
    50   24   25 1
    51   25   30 ar
    52   25   26 ar
    53   26   27 ar
    54   26   64 1
    55   27   28 ar
    56   27   65 1
    57   28   29 ar
    58   28   66 1
    59   29   30 ar
    60   29   67 1
    61   30   68 1
    62   31   36 ar
    63   31   32 ar
    64   32   33 ar
    65   32   69 1
    66   33   34 ar
    67   33   39 1
    68   34   35 ar
    69   34   70 1
    70   35   36 ar
    71   35   37 1
    72   36   71 1
    73   37   38 1
    74   38   72 1
    75   38   73 1
    76   38   74 1
    77   39   40 1
    78   40   75 1
    79   40   76 1
    80   40   77 1
@<TRIPOS>MOLECULE
CHEMBL190161
   84    87     0     0     0
SMALL
USER_CHARGES

@<TRIPOS>ATOM
      1 C1         -0.0187    1.5258    0.0104 C.3       1 <0>        -0.1648
      2 C2          0.0021   -0.0041    0.0020 C.3       1 <0>         0.1878
      3 C3          0.7421   -0.5109    1.2415 C.3       1 <0>        -0.1648
      4 C4         -1.4333   -0.5336    0.0129 C.3       1 <0>        -0.1575
      5 N1          0.6878   -0.4765   -1.2033 N.am      1 <0>        -0.7355
      6 C5          1.9715   -0.1323   -1.4270 C.2       1 <0>         0.6963
      7 O1          2.5604    0.5703   -0.6286 O.2       1 <0>        -0.5190
      8 N2          2.6023   -0.5669   -2.5359 N.am      1 <0>        -0.6655
      9 C6          3.9247   -0.2123   -2.7663 C.ar      1 <0>         0.4536
     10 C7          4.5693   -0.6712   -3.9356 C.ar      1 <0>        -0.1524
     11 C8          5.8881   -0.3212   -4.1717 C.ar      1 <0>         0.0270
     12 C9          6.5368    0.4880   -3.2221 C.ar      1 <0>        -0.2359
     13 C10         7.8708    0.8895   -3.3824 C.ar      1 <0>         0.2235
     14 N3          8.4455    1.6459   -2.4759 N.ar      1 <0>        -0.5405
     15 C11         7.8088    2.0618   -1.3834 C.ar      1 <0>         0.4046
     16 C12         6.4944    1.7182   -1.1375 C.ar      1 <0>        -0.2383
     17 C13         5.8226    0.9111   -2.0693 C.ar      1 <0>         0.2369
     18 N4          4.5491    0.5491   -1.8926 N.ar      1 <0>        -0.4834
     19 N5          8.4837    2.8609   -0.4679 N.pl3     1 <0>        -0.7275
     20 C14         7.7998    3.3283    0.7404 C.3       1 <0>         0.1286
     21 C15         8.7592    4.1828    1.5712 C.3       1 <0>        -0.1285
     22 C16         8.0449    4.6711    2.8331 C.3       1 <0>        -0.1462
     23 C17         9.0043    5.5256    3.6639 C.3       1 <0>        -0.0078
     24 N6          8.3185    5.9943    4.8755 N.4       1 <0>        -0.3869
     25 C18         7.2206    6.8944    4.4990 C.3       1 <0>        -0.0071
     26 C19         6.4940    7.3681    5.7598 C.3       1 <0>         0.0243
     27 N7          7.4447    8.0669    6.6362 N.3       1 <0>        -0.5438
     28 C20         8.5628    7.1856    7.0014 C.3       1 <0>         0.0239
     29 C21         9.2723    6.7134    5.7304 C.3       1 <0>        -0.0019
     30 C22         6.7718    8.5875    7.8338 C.3       1 <0>         0.0193
     31 C23         3.8387   -1.5231   -4.9046 C.ar      1 <0>         0.0356
     32 C24         3.1397   -2.6438   -4.4607 C.ar      1 <0>        -0.1996
     33 C25         2.4582   -3.4378   -5.3688 C.ar      1 <0>         0.1783
     34 C26         2.4715   -3.1183   -6.7187 C.ar      1 <0>        -0.2957
     35 C27         3.1664   -2.0032   -7.1640 C.ar      1 <0>         0.1784
     36 C28         3.8449   -1.2016   -6.2604 C.ar      1 <0>        -0.1737
     37 O2          3.1769   -1.6937   -8.4872 O.3       1 <0>        -0.3099
     38 C29         2.4514   -2.5601   -9.3619 C.3       1 <0>         0.0244
     39 O3          1.7762   -4.5310   -4.9368 O.3       1 <0>        -0.3110
     40 C30         1.0960   -5.3046   -5.9272 C.3       1 <0>         0.0242
     41 H1          1.0039    1.9031    0.0027 H         1 <0>         0.0793
     42 H2         -0.5459    1.8868   -0.8726 H         1 <0>         0.0536
     43 H3         -0.5289    1.8773    0.9072 H         1 <0>         0.0630
     44 H4          0.2319   -0.1594    2.1383 H         1 <0>         0.0629
     45 H5          0.7568   -1.6008    1.2356 H         1 <0>         0.0539
     46 H6          1.7647   -0.1336    1.2338 H         1 <0>         0.0793
     47 H7         -1.9605   -0.1726   -0.8702 H         1 <0>         0.0633
     48 H8         -1.4185   -1.6235    0.0069 H         1 <0>         0.0637
     49 H9         -1.9435   -0.1821    0.9097 H         1 <0>         0.0767
     50 H10         0.2179   -1.0371   -1.8404 H         1 <0>         0.3961
     51 H11         2.1325   -1.1275   -3.1729 H         1 <0>         0.4169
     52 H12         6.4032   -0.6599   -5.0584 H         1 <0>         0.1533
     53 H13         8.4269    0.5757   -4.2534 H         1 <0>         0.1711
     54 H14         5.9925    2.0642   -0.2459 H         1 <0>         0.1384
     55 H15         9.4075    3.1089   -0.6290 H         1 <0>         0.4062
     56 H16         6.9323    3.9254    0.4590 H         1 <0>         0.0681
     57 H17         7.4748    2.4704    1.3290 H         1 <0>         0.0681
     58 H18         9.6266    3.5858    1.8527 H         1 <0>         0.0831
     59 H19         9.0841    5.0408    0.9827 H         1 <0>         0.0833
     60 H20         7.1775    5.2681    2.5517 H         1 <0>         0.0917
     61 H21         7.7200    3.8131    3.4217 H         1 <0>         0.0914
     62 H22         9.8718    4.9285    3.9454 H         1 <0>         0.1328
     63 H23         9.3293    6.3835    3.0754 H         1 <0>         0.1324
     64 H24         7.6234    7.7559    3.9665 H         1 <0>         0.1383
     65 H25         6.5204    6.3635    3.8541 H         1 <0>         0.1375
     66 H26         5.6886    8.0478    5.4817 H         1 <0>         0.1238
     67 H27         6.0793    6.5080    6.2854 H         1 <0>         0.0608
     68 H28         9.2666    7.7322    7.6291 H         1 <0>         0.1239
     69 H29         8.1822    6.3225    7.5475 H         1 <0>         0.0605
     70 H30        10.0932    6.0483    5.9983 H         1 <0>         0.1360
     71 H31         9.6646    7.5759    5.1915 H         1 <0>         0.1379
     72 H32         6.3271    7.7614    8.3887 H         1 <0>         0.0397
     73 H33         7.4981    9.0998    8.4648 H         1 <0>         0.0839
     74 H34         5.9910    9.2875    7.5365 H         1 <0>         0.0845
     75 H35         3.1296   -2.8935   -3.4101 H         1 <0>         0.1343
     76 H36         1.9400   -3.7392   -7.4246 H         1 <0>         0.1388
     77 H37         4.3820   -0.3311   -6.6071 H         1 <0>         0.1379
     78 H38         2.5417   -2.2003  -10.3868 H         1 <0>         0.1060
     79 H39         2.8585   -3.5690   -9.2938 H         1 <0>         0.0580
     80 H40         1.4007   -2.5720   -9.0723 H         1 <0>         0.0575
     81 H41         0.3590   -4.6805   -6.4327 H         1 <0>         0.0580
     82 H42         1.8166   -5.6777   -6.6549 H         1 <0>         0.0582
     83 H43         0.5935   -6.1456   -5.4494 H         1 <0>         0.1057
     84 H44         7.9466    5.2028    5.3787 H         1 <0>         0.4207
@<TRIPOS>BOND
     1    1    2 1
     2    1   41 1
     3    1   42 1
     4    1   43 1
     5    2    3 1
     6    2    4 1
     7    2    5 1
     8    3   44 1
     9    3   45 1
    10    3   46 1
    11    4   47 1
    12    4   48 1
    13    4   49 1
    14    5    6 am
    15    5   50 1
    16    6    7 2
    17    6    8 am
    18    8    9 1
    19    8   51 1
    20    9   18 ar
    21    9   10 ar
    22   10   11 ar
    23   10   31 1
    24   11   12 ar
    25   11   52 1
    26   12   17 ar
    27   12   13 ar
    28   13   14 ar
    29   13   53 1
    30   14   15 ar
    31   15   16 ar
    32   15   19 1
    33   16   17 ar
    34   16   54 1
    35   17   18 ar
    36   19   20 1
    37   19   55 1
    38   20   21 1
    39   20   56 1
    40   20   57 1
    41   21   22 1
    42   21   58 1
    43   21   59 1
    44   22   23 1
    45   22   60 1
    46   22   61 1
    47   23   24 1
    48   23   62 1
    49   23   63 1
    50   24   29 1
    51   24   25 1
    52   24   84 1
    53   25   26 1
    54   25   64 1
    55   25   65 1
    56   26   27 1
    57   26   66 1
    58   26   67 1
    59   27   28 1
    60   27   30 1
    61   28   29 1
    62   28   68 1
    63   28   69 1
    64   29   70 1
    65   29   71 1
    66   30   72 1
    67   30   73 1
    68   30   74 1
    69   31   36 ar
    70   31   32 ar
    71   32   33 ar
    72   32   75 1
    73   33   34 ar
    74   33   39 1
    75   34   35 ar
    76   34   76 1
    77   35   36 ar
    78   35   37 1
    79   36   77 1
    80   37   38 1
    81   38   78 1
    82   38   79 1
    83   38   80 1
    84   39   40 1
    85   40   81 1
    86   40   82 1
    87   40   83 1
@<TRIPOS>MOLECULE
CHEMBL190161__1
   84    87     0     0     0
SMALL
USER_CHARGES

@<TRIPOS>ATOM
      1 C1         -0.0187    1.5258    0.0104 C.3       1 <0>        -0.1648
      2 C2          0.0021   -0.0041    0.0020 C.3       1 <0>         0.1879
      3 C3          0.7421   -0.5109    1.2415 C.3       1 <0>        -0.1651
      4 C4         -1.4333   -0.5336    0.0129 C.3       1 <0>        -0.1570
      5 N1          0.6878   -0.4765   -1.2033 N.am      1 <0>        -0.7361
      6 C5          1.9715   -0.1323   -1.4270 C.2       1 <0>         0.6956
      7 O1          2.5604    0.5703   -0.6286 O.2       1 <0>        -0.5175
      8 N2          2.6023   -0.5669   -2.5359 N.am      1 <0>        -0.6658
      9 C6          3.9247   -0.2123   -2.7663 C.ar      1 <0>         0.4520
     10 C7          4.5693   -0.6712   -3.9356 C.ar      1 <0>        -0.1557
     11 C8          5.8881   -0.3212   -4.1717 C.ar      1 <0>         0.0279
     12 C9          6.5368    0.4880   -3.2221 C.ar      1 <0>        -0.2377
     13 C10         7.8708    0.8895   -3.3824 C.ar      1 <0>         0.2220
     14 N3          8.4455    1.6459   -2.4759 N.ar      1 <0>        -0.5405
     15 C11         7.8088    2.0618   -1.3834 C.ar      1 <0>         0.4066
     16 C12         6.4944    1.7182   -1.1375 C.ar      1 <0>        -0.2396
     17 C13         5.8226    0.9111   -2.0693 C.ar      1 <0>         0.2375
     18 N4          4.5491    0.5491   -1.8926 N.ar      1 <0>        -0.4827
     19 N5          8.4837    2.8609   -0.4679 N.pl3     1 <0>        -0.7252
     20 C14         7.7998    3.3283    0.7404 C.3       1 <0>         0.1288
     21 C15         8.7592    4.1828    1.5712 C.3       1 <0>        -0.1310
     22 C16         8.0449    4.6711    2.8331 C.3       1 <0>        -0.1145
     23 C17         9.0043    5.5256    3.6639 C.3       1 <0>         0.0552
     24 N6          8.3185    5.9943    4.8755 N.3       1 <0>        -0.5397
     25 C18         7.2319    6.9249    4.5390 C.3       1 <0>         0.0199
     26 C19         6.5066    7.3422    5.8202 C.3       1 <0>        -0.0029
     27 N7          7.4592    7.9850    6.7351 N.4       1 <0>        -0.3885
     28 C20         8.5250    7.0355    7.0814 C.3       1 <0>        -0.0025
     29 C21         9.2671    6.6156    5.8106 C.3       1 <0>         0.0249
     30 C22         6.7588    8.4016    7.9573 C.3       1 <0>        -0.0458
     31 C23         3.8387   -1.5231   -4.9046 C.ar      1 <0>         0.0378
     32 C24         3.1397   -2.6438   -4.4607 C.ar      1 <0>        -0.1996
     33 C25         2.4582   -3.4378   -5.3688 C.ar      1 <0>         0.1779
     34 C26         2.4715   -3.1183   -6.7187 C.ar      1 <0>        -0.2964
     35 C27         3.1664   -2.0032   -7.1640 C.ar      1 <0>         0.1779
     36 C28         3.8449   -1.2016   -6.2604 C.ar      1 <0>        -0.1740
     37 O2          3.1769   -1.6937   -8.4872 O.3       1 <0>        -0.3101
     38 C29         2.4514   -2.5601   -9.3619 C.3       1 <0>         0.0246
     39 O3          1.7762   -4.5310   -4.9368 O.3       1 <0>        -0.3111
     40 C30         1.0960   -5.3046   -5.9272 C.3       1 <0>         0.0244
     41 H1          1.0039    1.9031    0.0027 H         1 <0>         0.0799
     42 H2         -0.5459    1.8868   -0.8726 H         1 <0>         0.0531
     43 H3         -0.5289    1.8773    0.9072 H         1 <0>         0.0625
     44 H4          0.2319   -0.1594    2.1383 H         1 <0>         0.0626
     45 H5          0.7568   -1.6008    1.2356 H         1 <0>         0.0537
     46 H6          1.7647   -0.1336    1.2338 H         1 <0>         0.0801
     47 H7         -1.9605   -0.1726   -0.8702 H         1 <0>         0.0629
     48 H8         -1.4185   -1.6235    0.0069 H         1 <0>         0.0635
     49 H9         -1.9435   -0.1821    0.9097 H         1 <0>         0.0763
     50 H10         0.2179   -1.0371   -1.8404 H         1 <0>         0.3956
     51 H11         2.1325   -1.1275   -3.1729 H         1 <0>         0.4163
     52 H12         6.4032   -0.6599   -5.0584 H         1 <0>         0.1523
     53 H13         8.4269    0.5757   -4.2534 H         1 <0>         0.1701
     54 H14         5.9925    2.0642   -0.2459 H         1 <0>         0.1394
     55 H15         9.4075    3.1089   -0.6290 H         1 <0>         0.4054
     56 H16         6.9323    3.9254    0.4590 H         1 <0>         0.0648
     57 H17         7.4748    2.4704    1.3290 H         1 <0>         0.0671
     58 H18         9.6266    3.5858    1.8527 H         1 <0>         0.0753
     59 H19         9.0841    5.0408    0.9827 H         1 <0>         0.0717
     60 H20         7.1775    5.2681    2.5517 H         1 <0>         0.0674
     61 H21         7.7200    3.8131    3.4217 H         1 <0>         0.0812
     62 H22         9.8718    4.9285    3.9454 H         1 <0>         0.0900
     63 H23         9.3293    6.3835    3.0754 H         1 <0>         0.0479
     64 H24         7.6467    7.8075    4.0519 H         1 <0>         0.0606
     65 H25         6.5284    6.4346    3.8661 H         1 <0>         0.1263
     66 H26         5.7093    8.0436    5.5744 H         1 <0>         0.1357
     67 H27         6.0803    6.4611    6.2998 H         1 <0>         0.1380
     68 H28         9.2240    7.5094    7.7705 H         1 <0>         0.1356
     69 H29         8.0884    6.1559    7.5545 H         1 <0>         0.1378
     70 H30        10.0484    5.8996    6.0655 H         1 <0>         0.1236
     71 H31         9.7153    7.4931    5.3445 H         1 <0>         0.0602
     72 H32         6.3226    7.5281    8.4418 H         1 <0>         0.1232
     73 H33         7.4655    8.8786    8.6364 H         1 <0>         0.1241
     74 H34         5.9687    9.1073    7.7007 H         1 <0>         0.1242
     75 H35         3.1296   -2.8935   -3.4101 H         1 <0>         0.1344
     76 H36         1.9400   -3.7392   -7.4246 H         1 <0>         0.1384
     77 H37         4.3820   -0.3311   -6.6071 H         1 <0>         0.1378
     78 H38         2.5417   -2.2003  -10.3868 H         1 <0>         0.1056
     79 H39         2.8585   -3.5690   -9.2938 H         1 <0>         0.0578
     80 H40         1.4007   -2.5720   -9.0723 H         1 <0>         0.0572
     81 H41         0.3590   -4.6805   -6.4327 H         1 <0>         0.0577
     82 H42         1.8166   -5.6777   -6.6549 H         1 <0>         0.0579
     83 H43         0.5935   -6.1456   -5.4494 H         1 <0>         0.1054
     84 H44         7.8624    8.7940    6.2866 H         1 <0>         0.4222
@<TRIPOS>BOND
     1    1    2 1
     2    1   41 1
     3    1   42 1
     4    1   43 1
     5    2    3 1
     6    2    4 1
     7    2    5 1
     8    3   44 1
     9    3   45 1
    10    3   46 1
    11    4   47 1
    12    4   48 1
    13    4   49 1
    14    5    6 am
    15    5   50 1
    16    6    7 2
    17    6    8 am
    18    8    9 1
    19    8   51 1
    20    9   18 ar
    21    9   10 ar
    22   10   11 ar
    23   10   31 1
    24   11   12 ar
    25   11   52 1
    26   12   17 ar
    27   12   13 ar
    28   13   14 ar
    29   13   53 1
    30   14   15 ar
    31   15   16 ar
    32   15   19 1
    33   16   17 ar
    34   16   54 1
    35   17   18 ar
    36   19   20 1
    37   19   55 1
    38   20   21 1
    39   20   56 1
    40   20   57 1
    41   21   22 1
    42   21   58 1
    43   21   59 1
    44   22   23 1
    45   22   60 1
    46   22   61 1
    47   23   24 1
    48   23   62 1
    49   23   63 1
    50   24   29 1
    51   24   25 1
    52   25   26 1
    53   25   64 1
    54   25   65 1
    55   26   27 1
    56   26   66 1
    57   26   67 1
    58   27   28 1
    59   27   30 1
    60   27   84 1
    61   28   29 1
    62   28   68 1
    63   28   69 1
    64   29   70 1
    65   29   71 1
    66   30   72 1
    67   30   73 1
    68   30   74 1
    69   31   36 ar
    70   31   32 ar
    71   32   33 ar
    72   32   75 1
    73   33   34 ar
    74   33   39 1
    75   34   35 ar
    76   34   76 1
    77   35   36 ar
    78   35   37 1
    79   36   77 1
    80   37   38 1
    81   38   78 1
    82   38   79 1
    83   38   80 1
    84   39   40 1
    85   40   81 1
    86   40   82 1
    87   40   83 1
@<TRIPOS>MOLECULE
CHEMBL189059
   80    83     0     0     0
SMALL
USER_CHARGES

@<TRIPOS>ATOM
      1 C1         -0.0187    1.5258    0.0104 C.3       1 <0>        -0.1658
      2 C2          0.0021   -0.0041    0.0020 C.3       1 <0>         0.1876
      3 C3          0.7421   -0.5109    1.2415 C.3       1 <0>        -0.1659
      4 C4         -1.4333   -0.5336    0.0129 C.3       1 <0>        -0.1564
      5 N1          0.6878   -0.4765   -1.2033 N.am      1 <0>        -0.7343
      6 C5          1.9715   -0.1323   -1.4270 C.2       1 <0>         0.6911
      7 O1          2.5604    0.5703   -0.6286 O.2       1 <0>        -0.5066
      8 N2          2.6023   -0.5669   -2.5359 N.am      1 <0>        -0.6627
      9 C6          3.9237   -0.2125   -2.7661 C.ar      1 <0>         0.4775
     10 C7          4.5674   -0.6715   -3.9350 C.ar      1 <0>        -0.1572
     11 C8          5.8870   -0.3194   -4.1691 C.ar      1 <0>         0.0403
     12 C9          6.5312    0.4892   -3.2184 C.ar      1 <0>        -0.2930
     13 C10         7.8677    0.8957   -3.3729 C.ar      1 <0>         0.2654
     14 N3          8.4056    1.6547   -2.4398 N.ar      1 <0>        -0.5722
     15 C11         7.7110    2.0355   -1.3697 C.ar      1 <0>         0.5914
     16 N4          6.4545    1.6839   -1.1733 N.ar      1 <0>        -0.5611
     17 C12         5.8198    0.9133   -2.0655 C.ar      1 <0>         0.4285
     18 N5          4.5480    0.5494   -1.8913 N.ar      1 <0>        -0.4761
     19 N6          8.3317    2.8312   -0.4257 N.pl3     1 <0>        -0.6962
     20 C13         9.7262    3.2387   -0.6138 C.3       1 <0>         0.1390
     21 C14        10.1670    4.1081    0.5655 C.3       1 <0>        -0.1331
     22 C15        11.6235    4.5336    0.3691 C.3       1 <0>         0.0599
     23 N7         12.0467    5.3683    1.5014 N.3       1 <0>        -0.5394
     24 C16        11.3149    6.6428    1.5187 C.3       1 <0>         0.0194
     25 C17        11.7406    7.4553    2.7436 C.3       1 <0>        -0.0028
     26 N8         13.1874    7.7025    2.6886 N.4       1 <0>        -0.3885
     27 C18        13.9055    6.4212    2.6968 C.3       1 <0>        -0.0026
     28 C19        13.4978    5.6000    1.4715 C.3       1 <0>         0.0253
     29 C20        13.5927    8.4980    3.8553 C.3       1 <0>        -0.0458
     30 C21         3.8378   -1.5239   -4.9046 C.ar      1 <0>         0.0359
     31 C22         3.1393   -2.6450   -4.4612 C.ar      1 <0>        -0.1989
     32 C23         2.4583   -3.4391   -5.3696 C.ar      1 <0>         0.1791
     33 C24         2.4713   -3.1189   -6.7193 C.ar      1 <0>        -0.2950
     34 C25         3.1661   -2.0036   -7.1642 C.ar      1 <0>         0.1781
     35 C26         3.8444   -1.2022   -6.2603 C.ar      1 <0>        -0.1732
     36 O2          3.1770   -1.6940   -8.4874 O.3       1 <0>        -0.3101
     37 C27         2.4521   -2.5604   -9.3625 C.3       1 <0>         0.0244
     38 O3          1.7772   -4.5330   -4.9381 O.3       1 <0>        -0.3103
     39 C28         1.0975   -5.3066   -5.9288 C.3       1 <0>         0.0242
     40 H1          1.0039    1.9031    0.0027 H         1 <0>         0.0805
     41 H2         -0.5459    1.8868   -0.8726 H         1 <0>         0.0530
     42 H3         -0.5289    1.8773    0.9072 H         1 <0>         0.0642
     43 H4          0.2319   -0.1594    2.1383 H         1 <0>         0.0641
     44 H5          0.7568   -1.6008    1.2356 H         1 <0>         0.0535
     45 H6          1.7647   -0.1336    1.2338 H         1 <0>         0.0806
     46 H7         -1.9605   -0.1726   -0.8702 H         1 <0>         0.0627
     47 H8         -1.4185   -1.6235    0.0069 H         1 <0>         0.0633
     48 H9         -1.9435   -0.1821    0.9097 H         1 <0>         0.0771
     49 H10         0.2179   -1.0371   -1.8404 H         1 <0>         0.3954
     50 H11         2.1325   -1.1275   -3.1729 H         1 <0>         0.4181
     51 H12         6.4043   -0.6568   -5.0551 H         1 <0>         0.1561
     52 H13         8.4409    0.5926   -4.2367 H         1 <0>         0.1813
     53 H14         7.8440    3.1200    0.3615 H         1 <0>         0.4164
     54 H15        10.3593    2.3531   -0.6689 H         1 <0>         0.0720
     55 H16         9.8168    3.8081   -1.5388 H         1 <0>         0.0688
     56 H17         9.5340    4.9937    0.6206 H         1 <0>         0.0712
     57 H18        10.0765    3.5386    1.4905 H         1 <0>         0.0851
     58 H19        12.2565    3.6480    0.3140 H         1 <0>         0.0940
     59 H20        11.7140    5.1031   -0.5559 H         1 <0>         0.0521
     60 H21        11.5417    7.2048    0.6127 H         1 <0>         0.0618
     61 H22        10.2438    6.4465    1.5669 H         1 <0>         0.1256
     62 H23        11.2094    8.4071    2.7507 H         1 <0>         0.1357
     63 H24        11.5012    6.8990    3.6498 H         1 <0>         0.1378
     64 H25        14.9793    6.6062    2.6692 H         1 <0>         0.1361
     65 H26        13.6550    5.8701    3.6032 H         1 <0>         0.1377
     66 H27        14.0192    4.6429    1.4852 H         1 <0>         0.1246
     67 H28        13.7605    6.1448    0.5647 H         1 <0>         0.0615
     68 H29        13.3514    7.9532    4.7680 H         1 <0>         0.1232
     69 H30        14.6663    8.6815    3.8147 H         1 <0>         0.1243
     70 H31        13.0609    9.4494    3.8487 H         1 <0>         0.1242
     71 H32         3.1291   -2.8950   -3.4106 H         1 <0>         0.1355
     72 H33         1.9396   -3.7395   -7.4254 H         1 <0>         0.1390
     73 H34         4.3815   -0.3315   -6.6067 H         1 <0>         0.1380
     74 H35         1.4013   -2.5726   -9.0732 H         1 <0>         0.0577
     75 H36         2.5427   -2.2004  -10.3873 H         1 <0>         0.1057
     76 H37         2.8594   -3.5692   -9.2944 H         1 <0>         0.0580
     77 H38         0.3600   -4.6829   -6.4340 H         1 <0>         0.0581
     78 H39         1.8184   -5.6788   -6.6568 H         1 <0>         0.0580
     79 H40         0.5957   -6.1483   -5.4514 H         1 <0>         0.1059
     80 H41        13.4104    8.2074    1.8440 H         1 <0>         0.4224
@<TRIPOS>BOND
     1    1    2 1
     2    1   40 1
     3    1   41 1
     4    1   42 1
     5    2    3 1
     6    2    4 1
     7    2    5 1
     8    3   43 1
     9    3   44 1
    10    3   45 1
    11    4   46 1
    12    4   47 1
    13    4   48 1
    14    5    6 am
    15    5   49 1
    16    6    7 2
    17    6    8 am
    18    8    9 1
    19    8   50 1
    20    9   18 ar
    21    9   10 ar
    22   10   11 ar
    23   10   30 1
    24   11   12 ar
    25   11   51 1
    26   12   17 ar
    27   12   13 ar
    28   13   14 ar
    29   13   52 1
    30   14   15 ar
    31   15   16 ar
    32   15   19 1
    33   16   17 ar
    34   17   18 ar
    35   19   20 1
    36   19   53 1
    37   20   21 1
    38   20   54 1
    39   20   55 1
    40   21   22 1
    41   21   56 1
    42   21   57 1
    43   22   23 1
    44   22   58 1
    45   22   59 1
    46   23   28 1
    47   23   24 1
    48   24   25 1
    49   24   60 1
    50   24   61 1
    51   25   26 1
    52   25   62 1
    53   25   63 1
    54   26   27 1
    55   26   29 1
    56   26   80 1
    57   27   28 1
    58   27   64 1
    59   27   65 1
    60   28   66 1
    61   28   67 1
    62   29   68 1
    63   29   69 1
    64   29   70 1
    65   30   35 ar
    66   30   31 ar
    67   31   32 ar
    68   31   71 1
    69   32   33 ar
    70   32   38 1
    71   33   34 ar
    72   33   72 1
    73   34   35 ar
    74   34   36 1
    75   35   73 1
    76   36   37 1
    77   37   74 1
    78   37   75 1
    79   37   76 1
    80   38   39 1
    81   39   77 1
    82   39   78 1
    83   39   79 1
@<TRIPOS>MOLECULE
CHEMBL189059__1
   80    83     0     0     0
SMALL
USER_CHARGES

@<TRIPOS>ATOM
      1 C1         -0.0187    1.5258    0.0104 C.3       1 <0>        -0.1658
      2 C2          0.0021   -0.0041    0.0020 C.3       1 <0>         0.1874
      3 C3          0.7421   -0.5109    1.2415 C.3       1 <0>        -0.1658
      4 C4         -1.4333   -0.5336    0.0129 C.3       1 <0>        -0.1568
      5 N1          0.6878   -0.4765   -1.2033 N.am      1 <0>        -0.7335
      6 C5          1.9715   -0.1323   -1.4270 C.2       1 <0>         0.6914
      7 O1          2.5604    0.5703   -0.6286 O.2       1 <0>        -0.5072
      8 N2          2.6023   -0.5669   -2.5359 N.am      1 <0>        -0.6621
      9 C6          3.9237   -0.2125   -2.7661 C.ar      1 <0>         0.4793
     10 C7          4.5674   -0.6715   -3.9350 C.ar      1 <0>        -0.1519
     11 C8          5.8870   -0.3194   -4.1691 C.ar      1 <0>         0.0384
     12 C9          6.5312    0.4892   -3.2184 C.ar      1 <0>        -0.2896
     13 C10         7.8677    0.8957   -3.3729 C.ar      1 <0>         0.2669
     14 N3          8.4056    1.6547   -2.4398 N.ar      1 <0>        -0.5749
     15 C11         7.7110    2.0355   -1.3697 C.ar      1 <0>         0.5894
     16 N4          6.4545    1.6839   -1.1733 N.ar      1 <0>        -0.5571
     17 C12         5.8198    0.9133   -2.0655 C.ar      1 <0>         0.4275
     18 N5          4.5480    0.5494   -1.8913 N.ar      1 <0>        -0.4758
     19 N6          8.3317    2.8312   -0.4257 N.pl3     1 <0>        -0.7013
     20 C13         9.7262    3.2387   -0.6138 C.3       1 <0>         0.1449
     21 C14        10.1670    4.1081    0.5655 C.3       1 <0>        -0.1661
     22 C15        11.6235    4.5336    0.3691 C.3       1 <0>        -0.0026
     23 N7         12.0467    5.3683    1.5014 N.4       1 <0>        -0.3863
     24 C16        11.2726    6.6166    1.5054 C.3       1 <0>        -0.0076
     25 C17        11.6999    7.4782    2.6956 C.3       1 <0>         0.0245
     26 N8         13.1362    7.7726    2.5930 N.3       1 <0>        -0.5437
     27 C18        13.9226    6.5314    2.5628 C.3       1 <0>         0.0238
     28 C19        13.4769    5.6775    1.3737 C.3       1 <0>        -0.0017
     29 C20        13.5740    8.6467    3.6895 C.3       1 <0>         0.0193
     30 C21         3.8378   -1.5239   -4.9046 C.ar      1 <0>         0.0329
     31 C22         3.1393   -2.6450   -4.4612 C.ar      1 <0>        -0.1989
     32 C23         2.4583   -3.4391   -5.3696 C.ar      1 <0>         0.1796
     33 C24         2.4713   -3.1189   -6.7194 C.ar      1 <0>        -0.2940
     34 C25         3.1661   -2.0036   -7.1642 C.ar      1 <0>         0.1788
     35 C26         3.8444   -1.2022   -6.2603 C.ar      1 <0>        -0.1726
     36 O2          3.1770   -1.6940   -8.4874 O.3       1 <0>        -0.3099
     37 C27         2.4521   -2.5604   -9.3625 C.3       1 <0>         0.0241
     38 O3          1.7772   -4.5330   -4.9381 O.3       1 <0>        -0.3102
     39 C28         1.0975   -5.3066   -5.9288 C.3       1 <0>         0.0239
     40 H1          1.0039    1.9031    0.0027 H         1 <0>         0.0801
     41 H2         -0.5459    1.8868   -0.8726 H         1 <0>         0.0533
     42 H3         -0.5289    1.8773    0.9072 H         1 <0>         0.0647
     43 H4          0.2319   -0.1594    2.1383 H         1 <0>         0.0646
     44 H5          0.7568   -1.6008    1.2356 H         1 <0>         0.0537
     45 H6          1.7647   -0.1336    1.2338 H         1 <0>         0.0801
     46 H7         -1.9605   -0.1726   -0.8702 H         1 <0>         0.0631
     47 H8         -1.4185   -1.6235    0.0069 H         1 <0>         0.0635
     48 H9         -1.9435   -0.1821    0.9097 H         1 <0>         0.0776
     49 H10         0.2179   -1.0371   -1.8404 H         1 <0>         0.3959
     50 H11         2.1325   -1.1275   -3.1729 H         1 <0>         0.4188
     51 H12         6.4043   -0.6568   -5.0551 H         1 <0>         0.1575
     52 H13         8.4409    0.5926   -4.2367 H         1 <0>         0.1828
     53 H14         7.8440    3.1200    0.3615 H         1 <0>         0.4174
     54 H15        10.3593    2.3531   -0.6689 H         1 <0>         0.0784
     55 H16         9.8168    3.8081   -1.5388 H         1 <0>         0.0787
     56 H17         9.5340    4.9937    0.6206 H         1 <0>         0.0953
     57 H18        10.0765    3.5386    1.4905 H         1 <0>         0.0951
     58 H19        12.2565    3.6480    0.3140 H         1 <0>         0.1369
     59 H20        11.7140    5.1031   -0.5559 H         1 <0>         0.1364
     60 H21        11.4556    7.1606    0.5787 H         1 <0>         0.1393
     61 H22        10.2105    6.3852    1.5870 H         1 <0>         0.1368
     62 H23        11.1361    8.4111    2.6903 H         1 <0>         0.1239
     63 H24        11.5043    6.9400    3.6230 H         1 <0>         0.0606
     64 H25        14.9804    6.7734    2.4606 H         1 <0>         0.1243
     65 H26        13.7636    5.9775    3.4881 H         1 <0>         0.0605
     66 H27        14.0492    4.7500    1.3577 H         1 <0>         0.1371
     67 H28        13.6487    6.2263    0.4477 H         1 <0>         0.1389
     68 H29        13.3854    8.1548    4.6437 H         1 <0>         0.0396
     69 H30        14.6404    8.8487    3.5894 H         1 <0>         0.0841
     70 H31        13.0211    9.5852    3.6490 H         1 <0>         0.0845
     71 H32         3.1291   -2.8950   -3.4106 H         1 <0>         0.1354
     72 H33         1.9396   -3.7395   -7.4254 H         1 <0>         0.1396
     73 H34         4.3815   -0.3315   -6.6067 H         1 <0>         0.1382
     74 H35         2.5427   -2.2004  -10.3873 H         1 <0>         0.1063
     75 H36         2.8594   -3.5692   -9.2944 H         1 <0>         0.0582
     76 H37         1.4013   -2.5726   -9.0732 H         1 <0>         0.0580
     77 H38         0.3600   -4.6829   -6.4340 H         1 <0>         0.0585
     78 H39         1.8184   -5.6788   -6.6568 H         1 <0>         0.0583
     79 H40         0.5957   -6.1483   -5.4514 H         1 <0>         0.1064
     80 H41        11.8861    4.8707    2.3643 H         1 <0>         0.4209
@<TRIPOS>BOND
     1    1    2 1
     2    1   40 1
     3    1   41 1
     4    1   42 1
     5    2    3 1
     6    2    4 1
     7    2    5 1
     8    3   43 1
     9    3   44 1
    10    3   45 1
    11    4   46 1
    12    4   47 1
    13    4   48 1
    14    5    6 am
    15    5   49 1
    16    6    7 2
    17    6    8 am
    18    8    9 1
    19    8   50 1
    20    9   18 ar
    21    9   10 ar
    22   10   11 ar
    23   10   30 1
    24   11   12 ar
    25   11   51 1
    26   12   17 ar
    27   12   13 ar
    28   13   14 ar
    29   13   52 1
    30   14   15 ar
    31   15   16 ar
    32   15   19 1
    33   16   17 ar
    34   17   18 ar
    35   19   20 1
    36   19   53 1
    37   20   21 1
    38   20   54 1
    39   20   55 1
    40   21   22 1
    41   21   56 1
    42   21   57 1
    43   22   23 1
    44   22   58 1
    45   22   59 1
    46   23   28 1
    47   23   24 1
    48   23   80 1
    49   24   25 1
    50   24   60 1
    51   24   61 1
    52   25   26 1
    53   25   62 1
    54   25   63 1
    55   26   27 1
    56   26   29 1
    57   27   28 1
    58   27   64 1
    59   27   65 1
    60   28   66 1
    61   28   67 1
    62   29   68 1
    63   29   69 1
    64   29   70 1
    65   30   35 ar
    66   30   31 ar
    67   31   32 ar
    68   31   71 1
    69   32   33 ar
    70   32   38 1
    71   33   34 ar
    72   33   72 1
    73   34   35 ar
    74   34   36 1
    75   35   73 1
    76   36   37 1
    77   37   74 1
    78   37   75 1
    79   37   76 1
    80   38   39 1
    81   39   77 1
    82   39   78 1
    83   39   79 1
@<TRIPOS>MOLECULE
CHEMBL606964
   57    61     0     0     0
SMALL
USER_CHARGES

@<TRIPOS>ATOM
      1 C1          1.6802   -0.3853    1.7093 C.3       1 <0>         0.0255
      2 O1          2.9673   -0.3006    1.0942 O.3       1 <0>        -0.3150
      3 C2          3.1009   -0.8611   -0.1375 C.ar      1 <0>         0.1345
      4 C3          2.0133   -1.4741   -0.7419 C.ar      1 <0>        -0.1984
      5 C4          2.1483   -2.0435   -1.9928 C.ar      1 <0>        -0.0740
      6 C5          3.3731   -2.0024   -2.6453 C.ar      1 <0>         0.1201
      7 C6          4.4613   -1.3886   -2.0398 C.ar      1 <0>        -0.0552
      8 C7          4.3234   -0.8146   -0.7913 C.ar      1 <0>        -0.1389
      9 N1          3.5110   -2.5804   -3.9145 N.am      1 <0>        -0.5685
     10 C8          3.4016   -4.0404   -4.0866 C.3       1 <0>         0.1678
     11 C9          3.5637   -4.5701   -5.4901 C.ar      1 <0>        -0.2973
     12 C10         3.4828   -5.9105   -5.7812 C.ar      1 <0>         0.2343
     13 N2          3.6362   -6.2977   -7.0421 N.ar      1 <0>        -0.5693
     14 C11         3.8626   -5.4121   -8.0014 C.ar      1 <0>         0.5958
     15 N3          3.9468   -4.1123   -7.7546 N.ar      1 <0>        -0.5895
     16 C12         3.8029   -3.6555   -6.5168 C.ar      1 <0>         0.4684
     17 N4          3.8844   -2.3039   -6.2305 N.am      1 <0>        -0.5280
     18 C13         3.7394   -1.8101   -4.9937 C.2       1 <0>         0.7029
     19 O2          3.8223   -0.6071   -4.8382 O.2       1 <0>        -0.5146
     20 C14         4.1370   -1.3702   -7.3308 C.3       1 <0>         0.1463
     21 H1          4.3761   -1.9213   -8.2403 H         1 <0>         0.1196
     22 C15         2.8990   -0.4795   -7.5627 C.3       1 <0>        -0.1268
     23 C16         3.2023    0.8092   -6.7586 C.3       1 <0>        -0.1654
     24 C17         4.7214    1.0056   -6.9880 C.3       1 <0>         0.1157
     25 H2          4.9037    1.4746   -7.9550 H         1 <0>         0.0542
     26 C18         5.2965   -0.4268   -6.9659 C.3       1 <0>        -0.1195
     27 O3          5.2884    1.7914   -5.9377 O.3       1 <0>        -0.5558
     28 N5          4.0167   -5.8586   -9.3034 N.pl3     1 <0>        -0.6331
     29 C19         3.8215   -7.2107   -9.6071 C.ar      1 <0>         0.1533
     30 C20         2.8499   -7.9410   -8.9355 C.ar      1 <0>        -0.0823
     31 C21         2.6590   -9.2753   -9.2368 C.ar      1 <0>        -0.1327
     32 C22         3.4356   -9.8849  -10.2077 C.ar      1 <0>         0.0826
     33 C23         4.4050   -9.1585  -10.8786 C.ar      1 <0>        -0.1318
     34 C24         4.5954   -7.8225  -10.5845 C.ar      1 <0>        -0.1166
     35 F1          3.2475  -11.1903  -10.5006 F         1 <0>        -0.1396
     36 H3          0.9430    0.1126    1.0794 H         1 <0>         0.0570
     37 H4          1.4047   -1.4327    1.8326 H         1 <0>         0.0571
     38 H5          1.7112    0.0996    2.6850 H         1 <0>         0.1022
     39 H6          1.0607   -1.5064   -0.2340 H         1 <0>         0.1341
     40 H7          1.3015   -2.5211   -2.4631 H         1 <0>         0.1276
     41 H8          5.4143   -1.3563   -2.5469 H         1 <0>         0.1311
     42 H9          5.1687   -0.3333   -0.3221 H         1 <0>         0.1374
     43 H10         4.1581   -4.5114   -3.4590 H         1 <0>         0.0827
     44 H11         2.4232   -4.3507   -3.7200 H         1 <0>         0.0803
     45 H12         3.2987   -6.6340   -5.0008 H         1 <0>         0.1815
     46 H13         2.7870   -0.2504   -8.6224 H         1 <0>         0.0793
     47 H14         2.0019   -0.9659   -7.1796 H         1 <0>         0.0667
     48 H15         2.6392    1.6538   -7.1557 H         1 <0>         0.0561
     49 H16         2.9871    0.6636   -5.7000 H         1 <0>         0.1184
     50 H17         5.6714   -0.6636   -5.9702 H         1 <0>         0.0885
     51 H18         6.0980   -0.5194   -7.6989 H         1 <0>         0.0726
     52 H19         4.9203    2.6831   -5.8710 H         1 <0>         0.3746
     53 H20         4.2599   -5.2342  -10.0047 H         1 <0>         0.4261
     54 H21         2.2442   -7.4660   -8.1779 H         1 <0>         0.1430
     55 H22         1.9037   -9.8437   -8.7145 H         1 <0>         0.1389
     56 H23         5.0098   -9.6360  -11.6353 H         1 <0>         0.1400
     57 H24         5.3483   -7.2551  -11.1114 H         1 <0>         0.1359
@<TRIPOS>BOND
     1    1    2 1
     2    1   36 1
     3    1   37 1
     4    1   38 1
     5    2    3 1
     6    3    8 ar
     7    3    4 ar
     8    4    5 ar
     9    4   39 1
    10    5    6 ar
    11    5   40 1
    12    6    7 ar
    13    6    9 1
    14    7    8 ar
    15    7   41 1
    16    8   42 1
    17    9   18 am
    18    9   10 1
    19   10   11 1
    20   10   43 1
    21   10   44 1
    22   11   16 ar
    23   11   12 ar
    24   12   13 ar
    25   12   45 1
    26   13   14 ar
    27   14   15 ar
    28   14   28 1
    29   15   16 ar
    30   16   17 1
    31   17   18 am
    32   17   20 1
    33   18   19 2
    34   20   21 1
    35   20   26 1
    36   20   22 1
    37   22   23 1
    38   22   46 1
    39   22   47 1
    40   23   24 1
    41   23   48 1
    42   23   49 1
    43   24   25 1
    44   24   26 1
    45   24   27 1
    46   26   50 1
    47   26   51 1
    48   27   52 1
    49   28   29 1
    50   28   53 1
    51   29   34 ar
    52   29   30 ar
    53   30   31 ar
    54   30   54 1
    55   31   32 ar
    56   31   55 1
    57   32   33 ar
    58   32   35 1
    59   33   34 ar
    60   33   56 1
    61   34   57 1
@<TRIPOS>MOLECULE
CHEMBL143147
   55    58     0     0     0
SMALL
USER_CHARGES

@<TRIPOS>ATOM
      1 C1         -1.0300    1.1849    0.3578 C.3       1 <0>        -0.1694
      2 C2         -0.1922   -0.0611    0.0639 C.3       1 <0>         0.1248
      3 C3          1.0768   -0.0356    0.9182 C.3       1 <0>        -0.1689
      4 N1         -0.9715   -1.2599    0.3827 N.am      1 <0>        -0.5018
      5 C4         -1.4192   -1.4453    1.6372 C.2       1 <0>         0.5417
      6 O1         -1.1658   -0.6087    2.4865 O.2       1 <0>        -0.5089
      7 C5         -2.1737   -2.5803    1.9968 C.2       1 <0>        -0.2232
      8 C6         -2.4687   -3.5271    1.0679 C.2       1 <0>         0.0042
      9 C7         -1.9856   -3.3327   -0.2957 C.ar      1 <0>        -0.2822
     10 C8         -1.2387   -2.1741   -0.6035 C.ar      1 <0>         0.4646
     11 N2         -0.8087   -2.0047   -1.8471 N.ar      1 <0>        -0.5940
     12 C9         -1.0822   -2.9057   -2.7792 C.ar      1 <0>         0.6035
     13 N3         -1.7865   -4.0034   -2.5260 N.ar      1 <0>        -0.5762
     14 C10        -2.2437   -4.2583   -1.3131 C.ar      1 <0>         0.2564
     15 N4         -0.6179   -2.6956   -4.0629 N.pl3     1 <0>        -0.6323
     16 C11        -0.9889   -3.5687   -5.0936 C.ar      1 <0>         0.1289
     17 C12        -2.2827   -4.0705   -5.1464 C.ar      1 <0>        -0.0572
     18 C13        -2.6484   -4.9311   -6.1623 C.ar      1 <0>        -0.1652
     19 C14        -1.7226   -5.2945   -7.1315 C.ar      1 <0>         0.1838
     20 C15        -0.4288   -4.7923   -7.0788 C.ar      1 <0>        -0.1642
     21 C16        -0.0646   -3.9279   -6.0656 C.ar      1 <0>        -0.0932
     22 N5         -2.0931   -6.1671   -8.1608 N.pl3     1 <0>        -0.6452
     23 C17        -1.1013   -6.6577   -9.1302 C.3       1 <0>         0.1001
     24 C18        -1.2173   -8.1833   -9.2140 C.3       1 <0>        -0.0233
     25 N6         -2.6040   -8.5513   -9.5267 N.4       1 <0>        -0.3838
     26 C19        -3.4888   -8.1476   -8.4266 C.3       1 <0>        -0.0232
     27 C20        -3.4842   -6.6247   -8.3005 C.3       1 <0>         0.0990
     28 C21        -2.6922  -10.0055   -9.7152 C.3       1 <0>        -0.0471
     29 H1         -0.4502    2.0769    0.1206 H         1 <0>         0.0755
     30 H2         -1.9340    1.1667   -0.2508 H         1 <0>         0.0540
     31 H3         -1.3027    1.1988    1.4131 H         1 <0>         0.0832
     32 H4          0.0805   -0.0749   -0.9914 H         1 <0>         0.1117
     33 H5          0.8042   -0.0217    1.9735 H         1 <0>         0.0826
     34 H6          1.6737   -0.9232    0.7088 H         1 <0>         0.0541
     35 H7          1.6567    0.8564    0.6810 H         1 <0>         0.0756
     36 H8         -2.5181   -2.6978    3.0136 H         1 <0>         0.1613
     37 H9         -3.0455   -4.4012    1.3319 H         1 <0>         0.1529
     38 H10        -2.8148   -5.1532   -1.1143 H         1 <0>         0.1852
     39 H11        -0.0349   -1.9435   -4.2508 H         1 <0>         0.4267
     40 H12        -3.0027   -3.7878   -4.3927 H         1 <0>         0.1346
     41 H13        -3.6544   -5.3218   -6.2030 H         1 <0>         0.1262
     42 H14         0.2913   -5.0750   -7.8325 H         1 <0>         0.1274
     43 H15         0.9405   -3.5344   -6.0268 H         1 <0>         0.1316
     44 H16        -1.2989   -6.2211  -10.1092 H         1 <0>         0.0873
     45 H17        -0.0993   -6.3842   -8.7994 H         1 <0>         0.1261
     46 H18        -0.5570   -8.5556   -9.9972 H         1 <0>         0.1405
     47 H19        -0.9315   -8.6225   -8.2582 H         1 <0>         0.1324
     48 H20        -4.5023   -8.4935   -8.6297 H         1 <0>         0.1409
     49 H21        -3.1342   -8.5879   -7.4947 H         1 <0>         0.1325
     50 H22        -4.0569   -6.3294   -7.4214 H         1 <0>         0.1270
     51 H23        -3.9265   -6.1846   -9.1943 H         1 <0>         0.0870
     52 H24        -2.3790  -10.5100   -8.8012 H         1 <0>         0.1216
     53 H25        -3.7212  -10.2800   -9.9475 H         1 <0>         0.1251
     54 H26        -2.0418  -10.3054  -10.5369 H         1 <0>         0.1249
     55 H27        -2.8908   -8.0866  -10.3752 H         1 <0>         0.4246
@<TRIPOS>BOND
     1    1    2 1
     2    1   29 1
     3    1   30 1
     4    1   31 1
     5    2    3 1
     6    2    4 1
     7    2   32 1
     8    3   33 1
     9    3   34 1
    10    3   35 1
    11    4   10 1
    12    4    5 am
    13    5    6 2
    14    5    7 1
    15    7    8 2
    16    7   36 1
    17    8    9 1
    18    8   37 1
    19    9   14 ar
    20    9   10 ar
    21   10   11 ar
    22   11   12 ar
    23   12   13 ar
    24   12   15 1
    25   13   14 ar
    26   14   38 1
    27   15   16 1
    28   15   39 1
    29   16   21 ar
    30   16   17 ar
    31   17   18 ar
    32   17   40 1
    33   18   19 ar
    34   18   41 1
    35   19   20 ar
    36   19   22 1
    37   20   21 ar
    38   20   42 1
    39   21   43 1
    40   22   27 1
    41   22   23 1
    42   23   24 1
    43   23   44 1
    44   23   45 1
    45   24   25 1
    46   24   46 1
    47   24   47 1
    48   25   26 1
    49   25   28 1
    50   25   55 1
    51   26   27 1
    52   26   48 1
    53   26   49 1
    54   27   50 1
    55   27   51 1
    56   28   52 1
    57   28   53 1
    58   28   54 1
@<TRIPOS>MOLECULE
CHEMBL143147__1
   54    57     0     0     0
SMALL
USER_CHARGES

@<TRIPOS>ATOM
      1 C1         -1.0300    1.1839    0.3587 C.3       1 <0>        -0.1684
      2 C2         -0.1917   -0.0616    0.0642 C.3       1 <0>         0.1249
      3 C3          1.0776   -0.0357    0.9180 C.3       1 <0>        -0.1678
      4 N1         -0.9703   -1.2609    0.3831 N.am      1 <0>        -0.5022
      5 C4         -1.4174   -1.4467    1.6378 C.2       1 <0>         0.5439
      6 O1         -1.1641   -0.6101    2.4871 O.2       1 <0>        -0.5179
      7 C5         -2.1713   -2.5821    1.9975 C.2       1 <0>        -0.2345
      8 C6         -2.4662   -3.5289    1.0685 C.2       1 <0>         0.0125
      9 C7         -1.9838   -3.3340   -0.2953 C.ar      1 <0>        -0.2922
     10 C8         -1.2376   -2.1750   -0.6031 C.ar      1 <0>         0.4639
     11 N2         -0.8081   -2.0052   -1.8469 N.ar      1 <0>        -0.6001
     12 C9         -1.0816   -2.9062   -2.7791 C.ar      1 <0>         0.6070
     13 N3         -1.7853   -4.0043   -2.5257 N.ar      1 <0>        -0.5698
     14 C10        -2.2419   -4.2596   -1.3127 C.ar      1 <0>         0.2590
     15 N4         -0.6179   -2.6956   -4.0629 N.pl3     1 <0>        -0.6240
     16 C11        -0.9889   -3.5687   -5.0936 C.ar      1 <0>         0.0917
     17 C12        -2.2825   -4.0711   -5.1459 C.ar      1 <0>        -0.0504
     18 C13        -2.6482   -4.9317   -6.1618 C.ar      1 <0>        -0.1828
     19 C14        -1.7226   -5.2945   -7.1315 C.ar      1 <0>         0.2149
     20 C15        -0.4291   -4.7917   -7.0793 C.ar      1 <0>        -0.1824
     21 C16        -0.0648   -3.9273   -6.0661 C.ar      1 <0>        -0.0855
     22 N5         -2.0931   -6.1671   -8.1608 N.pl3     1 <0>        -0.6308
     23 C17        -1.1004   -6.6567   -9.1293 C.3       1 <0>         0.1259
     24 C18        -1.2018   -8.1841   -9.2004 C.3       1 <0>         0.0383
     25 N6         -2.5908   -8.5666   -9.4874 N.3       1 <0>        -0.5427
     26 C19        -3.4930   -8.1478   -8.4065 C.3       1 <0>         0.0380
     27 C20        -3.4843   -6.6238   -8.2992 C.3       1 <0>         0.1253
     28 C21        -2.6990  -10.0108   -9.7336 C.3       1 <0>         0.0242
     29 H1         -0.4507    2.0762    0.1214 H         1 <0>         0.0733
     30 H2         -1.9343    1.1655   -0.2496 H         1 <0>         0.0540
     31 H3         -1.3022    1.1975    1.4140 H         1 <0>         0.0822
     32 H4          0.0806   -0.0752   -0.9912 H         1 <0>         0.1121
     33 H5          0.8054   -0.0221    1.9734 H         1 <0>         0.0816
     34 H6          1.6749   -0.9230    0.7082 H         1 <0>         0.0540
     35 H7          1.6569    0.8566    0.6807 H         1 <0>         0.0735
     36 H8         -2.5152   -2.7000    3.0144 H         1 <0>         0.1582
     37 H9         -3.0425   -4.4033    1.3326 H         1 <0>         0.1510
     38 H10        -2.8124   -5.1548   -1.1139 H         1 <0>         0.1840
     39 H11        -0.0354   -1.9431   -4.2509 H         1 <0>         0.4231
     40 H12        -3.0023   -3.7890   -4.3918 H         1 <0>         0.1273
     41 H13        -3.6540   -5.3230   -6.2021 H         1 <0>         0.1257
     42 H14         0.2908   -5.0738   -7.8333 H         1 <0>         0.1266
     43 H15         0.9400   -3.5332   -6.0277 H         1 <0>         0.1243
     44 H16        -1.3054   -6.2301  -10.1112 H         1 <0>         0.0704
     45 H17        -0.0999   -6.3709   -8.8045 H         1 <0>         0.0865
     46 H18        -0.5512   -8.5554   -9.9922 H         1 <0>         0.0859
     47 H19        -0.8959   -8.6137   -8.2465 H         1 <0>         0.0387
     48 H20        -4.5042   -8.4927   -8.6225 H         1 <0>         0.0863
     49 H21        -3.1553   -8.5779   -7.4636 H         1 <0>         0.0385
     50 H22        -4.0593   -6.3162   -7.4258 H         1 <0>         0.0874
     51 H23        -3.9229   -6.1939   -9.1997 H         1 <0>         0.0702
     52 H24        -2.3614  -10.5559   -8.8522 H         1 <0>         0.0260
     53 H25        -3.7375  -10.2668   -9.9435 H         1 <0>         0.0705
     54 H26        -2.0783  -10.2812  -10.5879 H         1 <0>         0.0707
@<TRIPOS>BOND
     1    1    2 1
     2    1   29 1
     3    1   30 1
     4    1   31 1
     5    2    3 1
     6    2    4 1
     7    2   32 1
     8    3   33 1
     9    3   34 1
    10    3   35 1
    11    4   10 1
    12    4    5 am
    13    5    6 2
    14    5    7 1
    15    7    8 2
    16    7   36 1
    17    8    9 1
    18    8   37 1
    19    9   14 ar
    20    9   10 ar
    21   10   11 ar
    22   11   12 ar
    23   12   13 ar
    24   12   15 1
    25   13   14 ar
    26   14   38 1
    27   15   16 1
    28   15   39 1
    29   16   21 ar
    30   16   17 ar
    31   17   18 ar
    32   17   40 1
    33   18   19 ar
    34   18   41 1
    35   19   20 ar
    36   19   22 1
    37   20   21 ar
    38   20   42 1
    39   21   43 1
    40   22   27 1
    41   22   23 1
    42   23   24 1
    43   23   44 1
    44   23   45 1
    45   24   25 1
    46   24   46 1
    47   24   47 1
    48   25   26 1
    49   25   28 1
    50   26   27 1
    51   26   48 1
    52   26   49 1
    53   27   50 1
    54   27   51 1
    55   28   52 1
    56   28   53 1
    57   28   54 1
@<TRIPOS>MOLECULE
CHEMBL60979
   74    78     0     0     0
SMALL
USER_CHARGES

@<TRIPOS>ATOM
      1 C1          0.0633    1.4548   -0.0251 C.3       1 <0>        -0.0458
      2 N1          0.0729   -0.0142   -0.0289 N.4       1 <0>        -0.3885
      3 C2         -1.3088   -0.5126   -0.0178 C.3       1 <0>        -0.0027
      4 C3         -1.2995   -2.0426   -0.0407 C.3       1 <0>         0.0253
      5 N2         -0.5707   -2.5429    1.1335 N.3       1 <0>        -0.5394
      6 C4          0.8073   -2.0319    1.1492 C.3       1 <0>         0.0194
      7 C5          0.7807   -0.5019    1.1622 C.3       1 <0>        -0.0028
      8 C6         -0.5883   -4.0111    1.1778 C.3       1 <0>         0.0600
      9 C7         -0.0447   -4.4871    2.5264 C.3       1 <0>        -0.1333
     10 C8         -0.0630   -6.0163    2.5726 C.3       1 <0>         0.1388
     11 N3          0.4574   -6.4722    3.8640 N.pl3     1 <0>        -0.6955
     12 C9          0.5374   -7.8243    4.1384 C.ar      1 <0>         0.5927
     13 N4          0.1391   -8.6891    3.2078 N.ar      1 <0>        -0.5705
     14 C10         0.1918   -9.9898    3.4120 C.ar      1 <0>         0.2664
     15 C11         0.6816  -10.4557    4.6441 C.ar      1 <0>        -0.2901
     16 C12         0.7695  -11.8265    4.9374 C.ar      1 <0>         0.0500
     17 C13         1.2653  -12.1949    6.1778 C.ar      1 <0>        -0.1610
     18 C14         1.6600  -11.1950    7.0922 C.ar      1 <0>         0.4848
     19 N5          1.5676   -9.9152    6.7938 N.ar      1 <0>        -0.4752
     20 C15         1.0977   -9.5062    5.6138 C.ar      1 <0>         0.4317
     21 N6          1.0103   -8.2051    5.3098 N.ar      1 <0>        -0.5603
     22 N7          2.1559  -11.5680    8.3330 N.am      1 <0>        -0.6552
     23 C16         2.5371  -10.6253    9.2175 C.2       1 <0>         0.6915
     24 O1          2.4465   -9.4480    8.9281 O.2       1 <0>        -0.4866
     25 N8          3.0189  -10.9877   10.4229 N.am      1 <0>        -0.6798
     26 C17         3.5046  -10.0148   11.3036 C.ar      1 <0>         0.1984
     27 C18         4.5902  -10.2981   12.1229 C.ar      1 <0>        -0.1800
     28 C19         5.0696   -9.3377   12.9922 C.ar      1 <0>        -0.0599
     29 C20         4.4715   -8.0930   13.0491 C.ar      1 <0>        -0.2222
     30 C21         3.3871   -7.8044   12.2328 C.ar      1 <0>         0.1460
     31 C22         2.9062   -8.7641   11.3556 C.ar      1 <0>        -0.1525
     32 O2          2.7997   -6.5803   12.2901 O.3       1 <0>        -0.3144
     33 C23         3.3504   -5.6391   13.2137 C.3       1 <0>         0.0269
     34 C24         1.3799  -13.6276    6.5416 C.ar      1 <0>        -0.0445
     35 C25         0.3146  -14.2799    7.1625 C.ar      1 <0>        -0.0132
     36 C26         0.4274  -15.6149    7.4985 C.ar      1 <0>        -0.1035
     37 C27         1.5936  -16.3048    7.2208 C.ar      1 <0>        -0.0813
     38 C28         2.6535  -15.6638    6.6052 C.ar      1 <0>        -0.1037
     39 C29         2.5511  -14.3305    6.2591 C.ar      1 <0>        -0.0131
     40 Cl1         3.8798  -13.5295    5.4801 Cl        1 <0>        -0.0432
     41 Cl2        -1.1495  -13.4154    7.5129 Cl        1 <0>        -0.0425
     42 H1          1.0885    1.8248   -0.0346 H         1 <0>         0.1242
     43 H2         -0.4619    1.8169   -0.9090 H         1 <0>         0.1243
     44 H3         -0.4438    1.8126    0.8709 H         1 <0>         0.1232
     45 H4         -1.8129   -0.1657    0.8842 H         1 <0>         0.1378
     46 H5         -1.8367   -0.1393   -0.8954 H         1 <0>         0.1361
     47 H6         -2.3245   -2.4129   -0.0175 H         1 <0>         0.1247
     48 H7         -0.8075   -2.3898   -0.9493 H         1 <0>         0.0615
     49 H8          1.3194   -2.3943    2.0405 H         1 <0>         0.1256
     50 H9          1.3340   -2.3789    0.2602 H         1 <0>         0.0617
     51 H10         1.8018   -0.1207    1.1595 H         1 <0>         0.1357
     52 H11         0.2658   -0.1551    2.0582 H         1 <0>         0.1379
     53 H12        -1.6112   -4.3662    1.0525 H         1 <0>         0.0940
     54 H13         0.0344   -4.4063    0.3752 H         1 <0>         0.0520
     55 H14         0.9782   -4.1321    2.6517 H         1 <0>         0.0713
     56 H15        -0.6674   -4.0919    3.3291 H         1 <0>         0.0853
     57 H16        -1.0859   -6.3714    2.4474 H         1 <0>         0.0722
     58 H17         0.5596   -6.4115    1.7700 H         1 <0>         0.0691
     59 H18         0.7459   -5.8249    4.5264 H         1 <0>         0.4168
     60 H19        -0.1344  -10.6821    2.6499 H         1 <0>         0.1813
     61 H20         0.4597  -12.5705    4.2185 H         1 <0>         0.1534
     62 H21         2.2282  -12.5074    8.5639 H         1 <0>         0.4156
     63 H22         3.0289  -11.9230   10.6800 H         1 <0>         0.4096
     64 H23         5.0593  -11.2700   12.0804 H         1 <0>         0.1280
     65 H24         5.9132   -9.5600   13.6289 H         1 <0>         0.1312
     66 H25         4.8483   -7.3442   13.7301 H         1 <0>         0.1296
     67 H26         2.0649   -8.5398   10.7165 H         1 <0>         0.1493
     68 H27         3.2868   -6.0421   14.2244 H         1 <0>         0.0570
     69 H28         4.3943   -5.4515   12.9623 H         1 <0>         0.0562
     70 H29         2.7901   -4.7057   13.1588 H         1 <0>         0.1002
     71 H30        -0.3966  -16.1211    7.9793 H         1 <0>         0.1467
     72 H31         1.6772  -17.3484    7.4861 H         1 <0>         0.1484
     73 H32         3.5616  -16.2079    6.3914 H         1 <0>         0.1466
     74 H33         0.5428   -0.3452   -0.8581 H         1 <0>         0.4223
@<TRIPOS>BOND
     1    1    2 1
     2    1   42 1
     3    1   43 1
     4    1   44 1
     5    2    7 1
     6    2    3 1
     7    2   74 1
     8    3    4 1
     9    3   45 1
    10    3   46 1
    11    4    5 1
    12    4   47 1
    13    4   48 1
    14    5    6 1
    15    5    8 1
    16    6    7 1
    17    6   49 1
    18    6   50 1
    19    7   51 1
    20    7   52 1
    21    8    9 1
    22    8   53 1
    23    8   54 1
    24    9   10 1
    25    9   55 1
    26    9   56 1
    27   10   11 1
    28   10   57 1
    29   10   58 1
    30   11   12 1
    31   11   59 1
    32   12   21 ar
    33   12   13 ar
    34   13   14 ar
    35   14   15 ar
    36   14   60 1
    37   15   20 ar
    38   15   16 ar
    39   16   17 ar
    40   16   61 1
    41   17   18 ar
    42   17   34 1
    43   18   19 ar
    44   18   22 1
    45   19   20 ar
    46   20   21 ar
    47   22   23 am
    48   22   62 1
    49   23   24 2
    50   23   25 am
    51   25   26 1
    52   25   63 1
    53   26   31 ar
    54   26   27 ar
    55   27   28 ar
    56   27   64 1
    57   28   29 ar
    58   28   65 1
    59   29   30 ar
    60   29   66 1
    61   30   31 ar
    62   30   32 1
    63   31   67 1
    64   32   33 1
    65   33   68 1
    66   33   69 1
    67   33   70 1
    68   34   39 ar
    69   34   35 ar
    70   35   36 ar
    71   35   41 1
    72   36   37 ar
    73   36   71 1
    74   37   38 ar
    75   37   72 1
    76   38   39 ar
    77   38   73 1
    78   39   40 1
@<TRIPOS>MOLECULE
CHEMBL60979__1
   74    78     0     0     0
SMALL
USER_CHARGES

@<TRIPOS>ATOM
      1 C1          0.0623    1.4586   -0.0276 C.3       1 <0>         0.0193
      2 N1          0.0720   -0.0104   -0.0311 N.3       1 <0>        -0.5437
      3 C2         -1.2945   -0.5460   -0.1065 C.3       1 <0>         0.0238
      4 C3         -1.2377   -2.0740   -0.1678 C.3       1 <0>        -0.0017
      5 N2         -0.5575   -2.5872    1.0286 N.4       1 <0>        -0.3863
      6 C4          0.8138   -2.0632    1.0771 C.3       1 <0>        -0.0076
      7 C5          0.7740   -0.5352    1.1488 C.3       1 <0>         0.0245
      8 C6         -0.5192   -4.0548    0.9781 C.3       1 <0>        -0.0026
      9 C7          0.0765   -4.5946    2.2799 C.3       1 <0>        -0.1663
     10 C8          0.1164   -6.1232    2.2272 C.3       1 <0>         0.1447
     11 N3          0.6868   -6.6400    3.4737 N.pl3     1 <0>        -0.7006
     12 C9          0.8242   -8.0027    3.6579 C.ar      1 <0>         0.5908
     13 N4          0.4345   -8.8211    2.6828 N.ar      1 <0>        -0.5732
     14 C10         0.5409  -10.1292    2.8009 C.ar      1 <0>         0.2681
     15 C11         1.0796  -10.6535    3.9884 C.ar      1 <0>        -0.2869
     16 C12         1.2260  -12.0358    4.1900 C.ar      1 <0>         0.0485
     17 C13         1.7673  -12.4632    5.3920 C.ar      1 <0>        -0.1562
     18 C14         2.1479  -11.5091    6.3598 C.ar      1 <0>         0.4866
     19 N5          2.0001  -10.2174    6.1473 N.ar      1 <0>        -0.4748
     20 C15         1.4849   -9.7525    5.0076 C.ar      1 <0>         0.4309
     21 N6          1.3412   -8.4390    4.7908 N.ar      1 <0>        -0.5563
     22 N7          2.6893  -11.9412    7.5618 N.am      1 <0>        -0.6547
     23 C16         3.0579  -11.0428    8.4964 C.2       1 <0>         0.6919
     24 O1          2.9159   -9.8539    8.2861 O.2       1 <0>        -0.4872
     25 N8          3.5839  -11.4625    9.6642 N.am      1 <0>        -0.6791
     26 C17         4.0556  -10.5297   10.5945 C.ar      1 <0>         0.1974
     27 C18         5.1718  -10.8224   11.3680 C.ar      1 <0>        -0.1794
     28 C19         5.6374   -9.9016   12.2863 C.ar      1 <0>        -0.0595
     29 C20         4.9950   -8.6873   12.4378 C.ar      1 <0>        -0.2215
     30 C21         3.8798   -8.3895   11.6675 C.ar      1 <0>         0.1458
     31 C22         3.4124   -9.3091   10.7415 C.ar      1 <0>        -0.1526
     32 O2          3.2488   -7.1953   11.8179 O.3       1 <0>        -0.3149
     33 C23         3.7877   -6.2943   12.7874 C.3       1 <0>         0.0267
     34 C24         1.9445  -13.9107    5.6593 C.ar      1 <0>        -0.0475
     35 C25         0.9208  -14.6422    6.2614 C.ar      1 <0>        -0.0129
     36 C26         1.0920  -15.9906    6.5073 C.ar      1 <0>        -0.1031
     37 C27         2.2756  -16.6155    6.1582 C.ar      1 <0>        -0.0800
     38 C28         3.2945  -15.8957    5.5608 C.ar      1 <0>        -0.1032
     39 C29         3.1335  -14.5479    5.3044 C.ar      1 <0>        -0.0128
     40 Cl1         4.4107  -13.6478    4.5480 Cl        1 <0>        -0.0428
     41 Cl2        -0.5650  -13.8595    6.7013 Cl        1 <0>        -0.0428
     42 H1          1.0875    1.8288   -0.0376 H         1 <0>         0.0845
     43 H2         -0.4632    1.8205   -0.9114 H         1 <0>         0.0841
     44 H3         -0.4446    1.8165    0.8685 H         1 <0>         0.0397
     45 H4         -1.8551   -0.2380    0.7762 H         1 <0>         0.0605
     46 H5         -1.7860   -0.1641   -1.0013 H         1 <0>         0.1244
     47 H6         -2.2508   -2.4739   -0.2095 H         1 <0>         0.1371
     48 H7         -0.6888   -2.3816   -1.0579 H         1 <0>         0.1389
     49 H8          1.3216   -2.4552    1.9583 H         1 <0>         0.1367
     50 H9          1.3522   -2.3710    0.1807 H         1 <0>         0.1393
     51 H10         1.7917   -0.1454    1.1697 H         1 <0>         0.1239
     52 H11         0.2475   -0.2270    2.0521 H         1 <0>         0.0607
     53 H12        -1.5310   -4.4407    0.8540 H         1 <0>         0.1370
     54 H13         0.0968   -4.3734    0.1371 H         1 <0>         0.1363
     55 H14         1.0883   -4.2087    2.4039 H         1 <0>         0.0954
     56 H15        -0.5395   -4.2760    3.1208 H         1 <0>         0.0953
     57 H16        -0.8954   -6.5090    2.1032 H         1 <0>         0.0787
     58 H17         0.7324   -6.4417    1.3863 H         1 <0>         0.0790
     59 H18         0.9680   -6.0257    4.1698 H         1 <0>         0.4179
     60 H19         0.2212  -10.7835    2.0034 H         1 <0>         0.1829
     61 H20         0.9258  -12.7439    3.4318 H         1 <0>         0.1550
     62 H21         2.8026  -12.8898    7.7296 H         1 <0>         0.4163
     63 H22         3.6354  -12.4112    9.8597 H         1 <0>         0.4100
     64 H23         5.6756  -11.7705   11.2516 H         1 <0>         0.1283
     65 H24         6.5049  -10.1311   12.8873 H         1 <0>         0.1317
     66 H25         5.3611   -7.9694   13.1569 H         1 <0>         0.1300
     67 H26         2.5471   -9.0774   10.1382 H         1 <0>         0.1488
     68 H27         3.7654   -6.7633   13.7711 H         1 <0>         0.0573
     69 H28         4.8170   -6.0506   12.5243 H         1 <0>         0.0565
     70 H29         3.1917   -5.3819   12.8063 H         1 <0>         0.1004
     71 H30         0.3001  -16.5581    6.9734 H         1 <0>         0.1473
     72 H31         2.4048  -17.6698    6.3532 H         1 <0>         0.1491
     73 H32         4.2164  -16.3892    5.2909 H         1 <0>         0.1473
     74 H33        -1.0593   -2.2925    1.8529 H         1 <0>         0.4210
@<TRIPOS>BOND
     1    1    2 1
     2    1   42 1
     3    1   43 1
     4    1   44 1
     5    2    7 1
     6    2    3 1
     7    3    4 1
     8    3   45 1
     9    3   46 1
    10    4    5 1
    11    4   47 1
    12    4   48 1
    13    5    6 1
    14    5    8 1
    15    5   74 1
    16    6    7 1
    17    6   49 1
    18    6   50 1
    19    7   51 1
    20    7   52 1
    21    8    9 1
    22    8   53 1
    23    8   54 1
    24    9   10 1
    25    9   55 1
    26    9   56 1
    27   10   11 1
    28   10   57 1
    29   10   58 1
    30   11   12 1
    31   11   59 1
    32   12   21 ar
    33   12   13 ar
    34   13   14 ar
    35   14   15 ar
    36   14   60 1
    37   15   20 ar
    38   15   16 ar
    39   16   17 ar
    40   16   61 1
    41   17   18 ar
    42   17   34 1
    43   18   19 ar
    44   18   22 1
    45   19   20 ar
    46   20   21 ar
    47   22   23 am
    48   22   62 1
    49   23   24 2
    50   23   25 am
    51   25   26 1
    52   25   63 1
    53   26   31 ar
    54   26   27 ar
    55   27   28 ar
    56   27   64 1
    57   28   29 ar
    58   28   65 1
    59   29   30 ar
    60   29   66 1
    61   30   31 ar
    62   30   32 1
    63   31   67 1
    64   32   33 1
    65   33   68 1
    66   33   69 1
    67   33   70 1
    68   34   39 ar
    69   34   35 ar
    70   35   36 ar
    71   35   41 1
    72   36   37 ar
    73   36   71 1
    74   37   38 ar
    75   37   72 1
    76   38   39 ar
    77   38   73 1
    78   39   40 1
@<TRIPOS>MOLECULE
CHEMBL480356
   56    59     0     0     0
SMALL
USER_CHARGES

@<TRIPOS>ATOM
      1 C1         -1.1169    0.9652   -0.0828 C.3       1 <0>        -0.0918
      2 C2         -0.2104   -0.2367   -0.0149 C.2       1 <0>        -0.0758
      3 C3          0.2945   -0.9577   -1.0985 C.2       1 <0>        -0.1574
      4 C4          1.0666   -1.9604   -0.6106 C.2       1 <0>         0.0755
      5 N1          1.0666   -1.8975    0.7448 N.pl3     1 <0>        -0.5131
      6 H1          1.5408   -2.4996    1.3394 H         1 <0>         0.4153
      7 C5          0.2844   -0.8318    1.1354 C.2       1 <0>        -0.0415
      8 C6          0.0318   -0.4236    2.4614 C.2       1 <0>         0.1165
      9 C7         -0.0496   -1.3642    3.4702 C.2       1 <0>        -0.2414
     10 C8         -0.1639   -1.1175    4.9255 C.ar      1 <0>        -0.0862
     11 C9         -0.2213    0.0380    5.6908 C.ar      1 <0>        -0.0053
     12 C10        -0.3312   -0.0592    7.0782 C.ar      1 <0>        -0.1530
     13 C11        -0.3824   -1.3192    7.6848 C.ar      1 <0>        -0.0602
     14 C12        -0.3253   -2.4631    6.9235 C.ar      1 <0>        -0.1412
     15 C13        -0.2155   -2.3805    5.5366 C.ar      1 <0>         0.1688
     16 N2         -0.1410   -3.3608    4.5607 N.am      1 <0>        -0.6504
     17 C14        -0.0481   -2.8260    3.3317 C.2       1 <0>         0.5564
     18 O1          0.0273   -3.4456    2.2855 O.2       1 <0>        -0.5047
     19 C15        -0.3927    1.1632    7.9035 C.2       1 <0>         0.5652
     20 O2         -0.3476    2.2569    7.3744 O.2       1 <0>        -0.5349
     21 N3         -0.4987    1.0668    9.2437 N.am      1 <0>        -0.5216
     22 N4         -0.5571    2.2269   10.0270 N.pl3     1 <0>        -0.5413
     23 C16        -0.6670    2.1270   11.4158 C.ar      1 <0>         0.2180
     24 C17        -0.7129    0.8782   12.0224 C.ar      1 <0>        -0.2030
     25 C18        -0.8211    0.7830   13.3959 C.ar      1 <0>        -0.0664
     26 C19        -0.8843    1.9291   14.1672 C.ar      1 <0>        -0.1777
     27 C20        -0.8390    3.1739   13.5665 C.ar      1 <0>        -0.0649
     28 C21        -0.7250    3.2763   12.1940 C.ar      1 <0>        -0.1878
     29 C22         1.8046   -2.9797   -1.4397 C.3       1 <0>        -0.0924
     30 C23         0.0283   -0.6723   -2.5541 C.3       1 <0>        -0.0248
     31 C24         1.0898    0.2919   -3.0873 C.3       1 <0>        -0.1716
     32 C25         0.8235    0.5773   -4.5429 C.2       1 <0>         0.4885
     33 O3         -0.1272    0.0576   -5.1020 O.co2     1 <0>        -0.6998
     34 O4          1.5588    1.3278   -5.1614 O.co2     1 <0>        -0.7094
     35 H2         -0.5145    1.8723   -0.1326 H         1 <0>         0.0716
     36 H3         -1.7449    0.8970   -0.9711 H         1 <0>         0.0745
     37 H4         -1.7469    0.9959    0.8062 H         1 <0>         0.0589
     38 H5         -0.0980    0.6243    2.6884 H         1 <0>         0.1523
     39 H6         -0.1809    1.0069    5.2155 H         1 <0>         0.1441
     40 H7         -0.4671   -1.3938    8.7589 H         1 <0>         0.1289
     41 H8         -0.3657   -3.4301    7.4027 H         1 <0>         0.1347
     42 H9         -0.1578   -4.3137    4.7416 H         1 <0>         0.4169
     43 H10        -0.5347    0.1943    9.6658 H         1 <0>         0.4205
     44 H11        -0.5211    3.0995    9.6048 H         1 <0>         0.4352
     45 H12        -0.6642   -0.0173   11.4206 H         1 <0>         0.1140
     46 H13        -0.8568   -0.1876   13.8682 H         1 <0>         0.1232
     47 H14        -0.9697    1.8519   15.2410 H         1 <0>         0.1204
     48 H15        -0.8886    4.0670   14.1717 H         1 <0>         0.1253
     49 H16        -0.6851    4.2487   11.7258 H         1 <0>         0.1256
     50 H17         2.8033   -2.6077   -1.6686 H         1 <0>         0.0759
     51 H18         1.8836   -3.9131   -0.8823 H         1 <0>         0.0629
     52 H19         1.2609   -3.1557   -2.3678 H         1 <0>         0.0897
     53 H20         0.0662   -1.6033   -3.1197 H         1 <0>         0.0645
     54 H21        -0.9585   -0.2219   -2.6615 H         1 <0>         0.0670
     55 H22         1.0519    1.2229   -2.5217 H         1 <0>         0.0547
     56 H23         2.0765   -0.1585   -2.9799 H         1 <0>         0.0527
@<TRIPOS>BOND
     1    1    2 1
     2    1   35 1
     3    1   36 1
     4    1   37 1
     5    2    7 2
     6    2    3 1
     7    3    4 2
     8    3   30 1
     9    4    5 1
    10    4   29 1
    11    5    6 1
    12    5    7 1
    13    7    8 1
    14    8    9 2
    15    8   38 1
    16    9   17 1
    17    9   10 1
    18   10   15 ar
    19   10   11 ar
    20   11   12 ar
    21   11   39 1
    22   12   13 ar
    23   12   19 1
    24   13   14 ar
    25   13   40 1
    26   14   15 ar
    27   14   41 1
    28   15   16 1
    29   16   17 am
    30   16   42 1
    31   17   18 2
    32   19   20 2
    33   19   21 am
    34   21   22 1
    35   21   43 1
    36   22   23 1
    37   22   44 1
    38   23   28 ar
    39   23   24 ar
    40   24   25 ar
    41   24   45 1
    42   25   26 ar
    43   25   46 1
    44   26   27 ar
    45   26   47 1
    46   27   28 ar
    47   27   48 1
    48   28   49 1
    49   29   50 1
    50   29   51 1
    51   29   52 1
    52   30   31 1
    53   30   53 1
    54   30   54 1
    55   31   32 1
    56   31   55 1
    57   31   56 1
    58   32   33 2
    59   32   34 1
@<TRIPOS>MOLECULE
CHEMBL347086
   44    46     0     0     0
SMALL
USER_CHARGES

@<TRIPOS>ATOM
      1 C1         -0.6854    1.2121    2.0046 C.3       1 <0>         0.0306
      2 O1         -0.6029   -0.1988    1.7934 O.3       1 <0>        -0.3851
      3 C2          0.2809   -0.5774    0.7362 C.3       1 <0>         0.0622
      4 C3          0.2903   -2.1014    0.6006 C.3       1 <0>         0.0539
      5 O2         -1.0029   -2.5512    0.1916 O.3       1 <0>        -0.2853
      6 C4         -1.1658   -3.8894    0.0237 C.ar      1 <0>         0.1702
      7 C5         -0.1063   -4.7389    0.2542 C.ar      1 <0>        -0.1857
      8 C6         -0.2772   -6.1176    0.0804 C.ar      1 <0>         0.2029
      9 C7         -1.5381   -6.6171   -0.3300 C.ar      1 <0>        -0.1785
     10 C8         -2.5988   -5.7324   -0.5577 C.ar      1 <0>        -0.1516
     11 C9         -2.4119   -4.3913   -0.3766 C.ar      1 <0>         0.1165
     12 O3         -3.4446   -3.5333   -0.5923 O.3       1 <0>        -0.2974
     13 C10        -4.6894   -4.1055   -0.9986 C.3       1 <0>         0.0208
     14 C11        -1.6803   -8.0153   -0.4968 C.ar      1 <0>         0.4612
     15 N1         -0.6265   -8.7859   -0.2604 N.ar      1 <0>        -0.5788
     16 C12         0.5328   -8.2741    0.1216 C.ar      1 <0>         0.3403
     17 N2          0.7230   -6.9875    0.2923 N.ar      1 <0>        -0.5354
     18 N3         -2.8833   -8.5627   -0.8943 N.pl3     1 <0>        -0.6314
     19 C13        -3.0448   -9.9527   -0.9214 C.ar      1 <0>         0.1519
     20 C14        -2.1810  -10.7668   -0.2019 C.ar      1 <0>        -0.1278
     21 C15        -2.3433  -12.1426   -0.2307 C.ar      1 <0>         0.1371
     22 C16        -3.3690  -12.7050   -0.9787 C.ar      1 <0>        -0.0627
     23 C17        -4.2296  -11.8937   -1.6955 C.ar      1 <0>        -0.1056
     24 C18        -4.0743  -10.5197   -1.6647 C.ar      1 <0>         0.0628
     25 F1         -4.9198   -9.7286   -2.3608 F         1 <0>        -0.1312
     26 Cl1        -3.5711  -14.4288   -1.0146 Cl        1 <0>        -0.0429
     27 O4         -1.4979  -12.9418    0.4730 O.3       1 <0>        -0.4784
     28 H1          0.3016    1.6002    2.2561 H         1 <0>         0.0427
     29 H2         -1.0452    1.6951    1.0961 H         1 <0>         0.0437
     30 H3         -1.3757    1.4172    2.8229 H         1 <0>         0.0885
     31 H4         -0.0588   -0.1316   -0.1986 H         1 <0>         0.0638
     32 H5          1.2880   -0.2265    0.9613 H         1 <0>         0.0760
     33 H6          1.0297   -2.3953   -0.1445 H         1 <0>         0.0857
     34 H7          0.5441   -2.5501    1.5610 H         1 <0>         0.0793
     35 H8          0.8493   -4.3443    0.5663 H         1 <0>         0.1566
     36 H9         -3.5616   -6.1087   -0.8706 H         1 <0>         0.1396
     37 H10        -4.5534   -4.6420   -1.9377 H         1 <0>         0.0578
     38 H11        -5.0387   -4.7974   -0.2322 H         1 <0>         0.0579
     39 H12        -5.4257   -3.3136   -1.1360 H         1 <0>         0.1077
     40 H13         1.3592   -8.9459    0.3009 H         1 <0>         0.2014
     41 H14        -3.6169   -7.9841   -1.1548 H         1 <0>         0.4251
     42 H15        -1.3832  -10.3285    0.3793 H         1 <0>         0.1899
     43 H16        -5.0267  -12.3334   -2.2766 H         1 <0>         0.1552
     44 H17        -1.7900  -13.1244    1.3765 H         1 <0>         0.3965
@<TRIPOS>BOND
     1    1    2 1
     2    1   28 1
     3    1   29 1
     4    1   30 1
     5    2    3 1
     6    3    4 1
     7    3   31 1
     8    3   32 1
     9    4    5 1
    10    4   33 1
    11    4   34 1
    12    5    6 1
    13    6   11 ar
    14    6    7 ar
    15    7    8 ar
    16    7   35 1
    17    8   17 ar
    18    8    9 ar
    19    9   10 ar
    20    9   14 ar
    21   10   11 ar
    22   10   36 1
    23   11   12 1
    24   12   13 1
    25   13   37 1
    26   13   38 1
    27   13   39 1
    28   14   15 ar
    29   14   18 1
    30   15   16 ar
    31   16   17 ar
    32   16   40 1
    33   18   19 1
    34   18   41 1
    35   19   24 ar
    36   19   20 ar
    37   20   21 ar
    38   20   42 1
    39   21   22 ar
    40   21   27 1
    41   22   23 ar
    42   22   26 1
    43   23   24 ar
    44   23   43 1
    45   24   25 1
    46   27   44 1
@<TRIPOS>MOLECULE
CHEMBL377300
   46    49     0     0     0
SMALL
USER_CHARGES

@<TRIPOS>ATOM
      1 C1          2.3742    0.3628    2.1722 C.3       1 <0>        -0.0966
      2 C2          1.6796   -0.8000    1.5117 C.2       1 <0>         0.0876
      3 C3          2.2981   -1.8653    0.9789 C.2       1 <0>        -0.1880
      4 C4          1.2544   -2.7468    0.4494 C.ar      1 <0>        -0.1348
      5 C5          0.0310   -2.1083    0.7202 C.ar      1 <0>         0.1341
      6 N1          0.3242   -0.9291    1.3716 N.pl3     1 <0>        -0.5863
      7 H1         -0.3321   -0.2860    1.6825 H         1 <0>         0.4207
      8 C6         -1.1592   -2.7133    0.3303 C.ar      1 <0>        -0.1227
      9 C7         -1.1350   -3.9295   -0.3159 C.ar      1 <0>        -0.0620
     10 C8          0.0734   -4.5651   -0.5861 C.ar      1 <0>         0.0188
     11 C9          1.2681   -3.9803   -0.2072 C.ar      1 <0>         0.1622
     12 F1          2.4407   -4.5976   -0.4701 F         1 <0>        -0.1248
     13 O1          0.0794   -5.7660   -1.2251 O.3       1 <0>        -0.2108
     14 C10         0.2039   -6.8849   -0.4739 C.2       1 <0>         0.4665
     15 C11         0.3364   -8.1476   -1.0907 C.2       1 <0>        -0.0661
     16 C12         0.3743   -8.5699   -2.4066 C.2       1 <0>        -0.0794
     17 C13         0.5237   -9.9598   -2.3850 C.2       1 <0>         0.0604
     18 C14         0.5735  -10.3552   -1.0817 C.2       1 <0>        -0.0105
     19 N2          0.4610   -9.2653   -0.2870 N.pl3     1 <0>        -0.2299
     20 N3          0.4504   -9.0890    1.1038 N.2       1 <0>        -0.3296
     21 C15         0.3251   -7.8922    1.6085 C.2       1 <0>         0.3242
     22 N4          0.2082   -6.8072    0.8448 N.2       1 <0>        -0.5999
     23 O2          0.6046  -10.7741   -3.4731 O.3       1 <0>        -0.2792
     24 C16         0.7563  -12.1734   -3.2264 C.3       1 <0>         0.0248
     25 C17         0.8286  -12.9214   -4.5591 C.3       1 <0>         0.1065
     26 H2          1.6262  -12.4988   -5.1702 H         1 <0>         0.1107
     27 C18         1.1155  -14.4014   -4.2984 C.3       1 <0>        -0.1840
     28 O3         -0.4176  -12.7916   -5.2463 O.3       1 <0>        -0.5528
     29 C19         0.2733   -7.6979   -3.6315 C.3       1 <0>        -0.0827
     30 H3          2.4940    0.1578    3.2361 H         1 <0>         0.0818
     31 H4          3.3542    0.5067    1.7173 H         1 <0>         0.0889
     32 H5          1.7768    1.2650    2.0411 H         1 <0>         0.0719
     33 H6          3.3635   -2.0396    0.9465 H         1 <0>         0.1525
     34 H7         -2.1029   -2.2294    0.5346 H         1 <0>         0.1382
     35 H8         -2.0625   -4.3946   -0.6155 H         1 <0>         0.1452
     36 H9          0.6845  -11.3732   -0.7386 H         1 <0>         0.1815
     37 H10         0.3188   -7.7772    2.6824 H         1 <0>         0.2243
     38 H11         1.6733  -12.3456   -2.6629 H         1 <0>         0.0704
     39 H12        -0.0964  -12.5357   -2.6522 H         1 <0>         0.0641
     40 H13         0.3179  -14.8240   -3.6874 H         1 <0>         0.0624
     41 H14         1.1670  -14.9343   -5.2479 H         1 <0>         0.0755
     42 H15         2.0661  -14.5004   -3.7742 H         1 <0>         0.0708
     43 H16        -1.1738  -13.1476   -4.7600 H         1 <0>         0.3750
     44 H17         1.2706   -7.3775   -3.9328 H         1 <0>         0.0728
     45 H18        -0.1874   -8.2622   -4.4423 H         1 <0>         0.0766
     46 H19        -0.3365   -6.8231   -3.4055 H         1 <0>         0.0719
@<TRIPOS>BOND
     1    1    2 1
     2    1   30 1
     3    1   31 1
     4    1   32 1
     5    2    6 1
     6    2    3 2
     7    3    4 1
     8    3   33 1
     9    4   11 ar
    10    4    5 ar
    11    5    6 1
    12    5    8 ar
    13    6    7 1
    14    8    9 ar
    15    8   34 1
    16    9   10 ar
    17    9   35 1
    18   10   11 ar
    19   10   13 1
    20   11   12 1
    21   13   14 1
    22   14   22 2
    23   14   15 1
    24   15   19 1
    25   15   16 2
    26   16   17 1
    27   16   29 1
    28   17   18 2
    29   17   23 1
    30   18   19 1
    31   18   36 1
    32   19   20 1
    33   20   21 2
    34   21   22 1
    35   21   37 1
    36   23   24 1
    37   24   25 1
    38   24   38 1
    39   24   39 1
    40   25   26 1
    41   25   27 1
    42   25   28 1
    43   27   40 1
    44   27   41 1
    45   27   42 1
    46   28   43 1
    47   29   44 1
    48   29   45 1
    49   29   46 1
@<TRIPOS>MOLECULE
CHEMBL498551
   51    55     0     0     0
SMALL
USER_CHARGES

@<TRIPOS>ATOM
      1 C1          1.6481   -2.3079   -2.5647 C.3       1 <0>        -0.0469
      2 N1          0.8769   -2.1996   -1.3191 N.4       1 <0>        -0.3840
      3 C2          1.6323   -2.8184   -0.2224 C.3       1 <0>        -0.0234
      4 C3          0.8825   -2.6054    1.0967 C.3       1 <0>         0.1116
      5 N2         -0.4889   -3.1145    0.9411 N.pl3     1 <0>        -0.6782
      6 C4         -1.2648   -2.6705   -0.2272 C.3       1 <0>         0.1071
      7 C5         -0.4137   -2.8804   -1.4839 C.3       1 <0>        -0.0217
      8 C6         -1.0361   -3.9898    1.8717 C.ar      1 <0>         0.2163
      9 C7         -1.0319   -5.3557    1.6336 C.ar      1 <0>        -0.1516
     10 C8         -1.5769   -6.2272    2.5605 C.ar      1 <0>        -0.0444
     11 C9         -2.1319   -5.7555    3.7333 C.ar      1 <0>        -0.1557
     12 C10        -2.1498   -4.3918    3.9979 C.ar      1 <0>         0.2221
     13 C11        -1.5929   -3.4987    3.0640 C.ar      1 <0>        -0.1494
     14 C12        -1.6112   -2.0626    3.3533 C.2       1 <0>         0.3529
     15 C13        -2.1810   -1.6399    4.5585 C.2       1 <0>        -0.2519
     16 C14        -2.7160   -2.5966    5.4517 C.2       1 <0>         0.5699
     17 O1         -3.2111   -2.2198    6.4997 O.2       1 <0>        -0.5450
     18 N3         -2.7031   -3.9096    5.1680 N.am      1 <0>        -0.6334
     19 H1         -3.0807   -4.5352    5.8059 H         1 <0>         0.4233
     20 C15        -2.2231   -0.2077    4.8953 C.2       1 <0>         0.3693
     21 N4         -2.6374    0.3088    6.0954 N.pl3     1 <0>        -0.5820
     22 H2         -2.9500   -0.1962    6.8623 H         1 <0>         0.4347
     23 C16        -2.5259    1.6852    6.0083 C.ar      1 <0>         0.0477
     24 C17        -2.7904    2.7275    6.8845 C.ar      1 <0>        -0.1083
     25 C18        -2.5693    4.0303    6.4887 C.ar      1 <0>        -0.1019
     26 C19        -2.0835    4.3067    5.2188 C.ar      1 <0>        -0.1226
     27 C20        -1.8156    3.2858    4.3355 C.ar      1 <0>        -0.0751
     28 C21        -2.0335    1.9591    4.7206 C.ar      1 <0>         0.0530
     29 N5         -1.8639    0.7688    4.0933 N.2       1 <0>        -0.5162
     30 N6         -1.0829   -1.1564    2.4654 N.pl3     1 <0>        -0.8262
     31 H3          1.0920   -1.8419   -3.3780 H         1 <0>         0.1252
     32 H4          2.6065   -1.8029   -2.4437 H         1 <0>         0.1251
     33 H5          1.8182   -3.3593   -2.7965 H         1 <0>         0.1220
     34 H6          1.7386   -3.8865   -0.4117 H         1 <0>         0.1335
     35 H7          2.6194   -2.3606   -0.1575 H         1 <0>         0.1400
     36 H8          1.3863   -3.1486    1.8962 H         1 <0>         0.1216
     37 H9          0.8536   -1.5419    1.3341 H         1 <0>         0.0852
     38 H10        -2.1806   -3.2567   -0.3029 H         1 <0>         0.1257
     39 H11        -1.5105   -1.6136   -0.1235 H         1 <0>         0.0816
     40 H12        -0.9342   -2.4684   -2.3484 H         1 <0>         0.1409
     41 H13        -0.2454   -3.9467   -1.6349 H         1 <0>         0.1348
     42 H14        -0.6019   -5.7412    0.7209 H         1 <0>         0.1320
     43 H15        -1.5681   -7.2890    2.3637 H         1 <0>         0.1425
     44 H16        -2.5536   -6.4483    4.4465 H         1 <0>         0.1450
     45 H17        -3.1691    2.5195    7.8743 H         1 <0>         0.1245
     46 H18        -2.7762    4.8408    7.1719 H         1 <0>         0.1325
     47 H19        -1.9146    5.3310    4.9210 H         1 <0>         0.1309
     48 H20        -1.4382    3.5085    3.3484 H         1 <0>         0.1259
     49 H21        -1.1376   -1.3236    1.5115 H         1 <0>         0.3969
     50 H22        -0.6553   -0.3496    2.7927 H         1 <0>         0.4202
     51 H23         0.7176   -1.2261   -1.1072 H         1 <0>         0.4243
@<TRIPOS>BOND
     1    1    2 1
     2    1   31 1
     3    1   32 1
     4    1   33 1
     5    2    7 1
     6    2    3 1
     7    2   51 1
     8    3    4 1
     9    3   34 1
    10    3   35 1
    11    4    5 1
    12    4   36 1
    13    4   37 1
    14    5    6 1
    15    5    8 1
    16    6    7 1
    17    6   38 1
    18    6   39 1
    19    7   40 1
    20    7   41 1
    21    8   13 ar
    22    8    9 ar
    23    9   10 ar
    24    9   42 1
    25   10   11 ar
    26   10   43 1
    27   11   12 ar
    28   11   44 1
    29   12   18 1
    30   12   13 ar
    31   13   14 1
    32   14   15 2
    33   14   30 1
    34   15   16 1
    35   15   20 1
    36   16   17 2
    37   16   18 am
    38   18   19 1
    39   20   29 2
    40   20   21 1
    41   21   22 1
    42   21   23 1
    43   23   28 ar
    44   23   24 ar
    45   24   25 ar
    46   24   45 1
    47   25   26 ar
    48   25   46 1
    49   26   27 ar
    50   26   47 1
    51   27   28 ar
    52   27   48 1
    53   28   29 1
    54   30   49 1
    55   30   50 1
@<TRIPOS>MOLECULE
CHEMBL498551__1
   50    54     0     0     0
SMALL
USER_CHARGES

@<TRIPOS>ATOM
      1 C1          1.8085   -2.1634   -2.6346 C.3       1 <0>         0.0245
      2 N1          0.9957   -2.1790   -1.4111 N.3       1 <0>        -0.5408
      3 C2          1.7304   -2.7963   -0.2988 C.3       1 <0>         0.0386
      4 C3          0.9256   -2.6311    0.9947 C.3       1 <0>         0.1430
      5 N2         -0.4284   -3.1612    0.7735 N.pl3     1 <0>        -0.6826
      6 C4         -1.1763   -2.6909   -0.4023 C.3       1 <0>         0.1383
      7 C5         -0.2888   -2.8538   -1.6409 C.3       1 <0>         0.0398
      8 C6         -0.9864   -4.0818    1.6526 C.ar      1 <0>         0.2467
      9 C7         -0.9443   -5.4375    1.3650 C.ar      1 <0>        -0.1615
     10 C8         -1.5000   -6.3540    2.2405 C.ar      1 <0>        -0.0427
     11 C9         -2.1036   -5.9381    3.4104 C.ar      1 <0>        -0.1728
     12 C10        -2.1602   -4.5858    3.7240 C.ar      1 <0>         0.2196
     13 C11        -1.5927   -3.6472    2.8427 C.ar      1 <0>        -0.1607
     14 C12        -1.6522   -2.2236    3.1834 C.2       1 <0>         0.3729
     15 C13        -2.2704   -1.8580    4.3834 C.2       1 <0>        -0.2844
     16 C14        -2.8132   -2.8583    5.2226 C.2       1 <0>         0.5752
     17 O1         -3.3507   -2.5312    6.2665 O.2       1 <0>        -0.5613
     18 N3         -2.7621   -4.1592    4.8917 N.am      1 <0>        -0.6362
     19 H1         -3.1466   -4.8159    5.4932 H         1 <0>         0.4182
     20 C15        -2.3551   -0.4406    4.7708 C.2       1 <0>         0.3840
     21 N4         -2.8199    0.0221    5.9743 N.pl3     1 <0>        -0.5856
     22 H2         -3.1463   -0.5175    6.7113 H         1 <0>         0.4328
     23 C16        -2.7360    1.4028    5.9415 C.ar      1 <0>         0.0429
     24 C17        -3.0521    2.4060    6.8457 C.ar      1 <0>        -0.1095
     25 C18        -2.8469    3.7270    6.5055 C.ar      1 <0>        -0.1090
     26 C19        -2.3258    4.0606    5.2636 C.ar      1 <0>        -0.1272
     27 C20        -2.0065    3.0791    4.3531 C.ar      1 <0>        -0.0739
     28 C21        -2.2078    1.7348    4.6818 C.ar      1 <0>         0.0575
     29 N5         -1.9914    0.5724    4.0175 N.2       1 <0>        -0.5184
     30 N6         -1.1151   -1.2741    2.3476 N.pl3     1 <0>        -0.8109
     31 H3          1.2711   -1.6335   -3.4210 H         1 <0>         0.0705
     32 H4          2.7537   -1.6581   -2.4364 H         1 <0>         0.0700
     33 H5          2.0037   -3.1870   -2.9542 H         1 <0>         0.0256
     34 H6          1.8763   -3.8569   -0.5035 H         1 <0>         0.0384
     35 H7          2.6996   -2.3100   -0.1888 H         1 <0>         0.0840
     36 H8          1.4087   -3.1849    1.7998 H         1 <0>         0.0771
     37 H9          0.8669   -1.5748    1.2571 H         1 <0>         0.0674
     38 H10        -2.0829   -3.2843   -0.5210 H         1 <0>         0.0821
     39 H11        -1.4371   -1.6403   -0.2743 H         1 <0>         0.0637
     40 H12        -0.7839   -2.4091   -2.5041 H         1 <0>         0.0849
     41 H13        -0.1147   -3.9136   -1.8268 H         1 <0>         0.0400
     42 H14        -0.4762   -5.7797    0.4538 H         1 <0>         0.1310
     43 H15        -1.4614   -7.4075    2.0055 H         1 <0>         0.1365
     44 H16        -2.5331   -6.6656    4.0833 H         1 <0>         0.1386
     45 H17        -3.4583    2.1535    7.8140 H         1 <0>         0.1208
     46 H18        -3.0938    4.5070    7.2105 H         1 <0>         0.1283
     47 H19        -2.1698    5.0986    5.0093 H         1 <0>         0.1278
     48 H20        -1.6020    3.3462    3.3881 H         1 <0>         0.1268
     49 H21        -1.1348   -1.4067    1.3869 H         1 <0>         0.4112
     50 H22        -0.7163   -0.4713    2.7183 H         1 <0>         0.4186
@<TRIPOS>BOND
     1    1    2 1
     2    1   31 1
     3    1   32 1
     4    1   33 1
     5    2    7 1
     6    2    3 1
     7    3    4 1
     8    3   34 1
     9    3   35 1
    10    4    5 1
    11    4   36 1
    12    4   37 1
    13    5    6 1
    14    5    8 1
    15    6    7 1
    16    6   38 1
    17    6   39 1
    18    7   40 1
    19    7   41 1
    20    8   13 ar
    21    8    9 ar
    22    9   10 ar
    23    9   42 1
    24   10   11 ar
    25   10   43 1
    26   11   12 ar
    27   11   44 1
    28   12   18 1
    29   12   13 ar
    30   13   14 1
    31   14   15 2
    32   14   30 1
    33   15   16 1
    34   15   20 1
    35   16   17 2
    36   16   18 am
    37   18   19 1
    38   20   29 2
    39   20   21 1
    40   21   22 1
    41   21   23 1
    42   23   28 ar
    43   23   24 ar
    44   24   25 ar
    45   24   45 1
    46   25   26 ar
    47   25   46 1
    48   26   27 ar
    49   26   47 1
    50   27   28 ar
    51   27   48 1
    52   28   29 1
    53   30   49 1
    54   30   50 1
@<TRIPOS>MOLECULE
CHEMBL195218
   63    65     0     0     0
SMALL
USER_CHARGES

@<TRIPOS>ATOM
      1 C1          0.5896    0.4889    0.7162 C.3       1 <0>        -0.1496
      2 C2          0.1521   -0.9157    0.2962 C.3       1 <0>        -0.0282
      3 C3          0.5811   -1.9242    1.3638 C.3       1 <0>        -0.1478
      4 C4         -1.3470   -0.9509    0.1455 C.2       1 <0>        -0.0954
      5 C5         -2.2908   -0.7700    1.1630 C.2       1 <0>         0.1017
      6 C6         -3.5312   -0.8780    0.6060 C.2       1 <0>         0.0646
      7 N1         -3.3979   -1.1192   -0.7191 N.pl3     1 <0>        -0.2325
      8 C7         -2.0509   -1.1619   -1.0244 C.2       1 <0>        -0.0890
      9 C8         -1.6698   -1.3975   -2.3653 C.2       1 <0>         0.5313
     10 N2         -2.6079   -1.5656   -3.2830 N.2       1 <0>        -0.6187
     11 C9         -3.9025   -1.5183   -2.9744 C.2       1 <0>         0.3177
     12 N3         -4.3216   -1.3136   -1.7557 N.2       1 <0>        -0.3278
     13 N4         -0.3340   -1.4510   -2.7132 N.pl3     1 <0>        -0.6148
     14 C10         0.0371   -1.8210   -4.0120 C.ar      1 <0>         0.1029
     15 C11        -0.9069   -2.3439   -4.8783 C.ar      1 <0>        -0.0673
     16 C12        -0.5335   -2.7114   -6.1731 C.ar      1 <0>        -0.1527
     17 C13         0.7931   -2.5484   -6.5863 C.ar      1 <0>         0.1796
     18 C14         1.7283   -2.0252   -5.7134 C.ar      1 <0>        -0.1732
     19 C15         1.3549   -1.6569   -4.4327 C.ar      1 <0>         0.1281
     20 F1          2.2726   -1.1409   -3.5861 F         1 <0>        -0.1214
     21 F2          1.1598   -2.9026   -7.8374 F         1 <0>        -0.1009
     22 C16        -1.5350   -3.2701   -7.1020 C.2       1 <0>         0.5752
     23 O1         -1.2078   -3.5893   -8.2287 O.2       1 <0>        -0.4988
     24 N5         -2.8123   -3.4265   -6.7015 N.am      1 <0>        -0.5937
     25 O2         -3.7732   -3.9626   -7.5928 O.3       1 <0>        -0.1375
     26 C17        -5.0848   -4.0722   -7.0362 C.3       1 <0>        -0.0039
     27 N6         -2.0102   -0.5215    2.5184 N.am      1 <0>        -0.6179
     28 C18        -3.0195   -0.3660    3.3980 C.2       1 <0>         0.6524
     29 O3         -4.1719   -0.4406    3.0198 O.2       1 <0>        -0.5535
     30 O4         -2.7508   -0.1281    4.6959 O.3       1 <0>        -0.3569
     31 C19        -3.8690    0.0262    5.5722 C.3       1 <0>         0.0923
     32 C20        -3.3699    0.2879    6.9947 C.3       1 <0>        -0.1129
     33 C21        -4.5671    0.4532    7.9329 C.3       1 <0>        -0.6161
     34 S1         -3.9754    0.7635    9.6193 S.o2      1 <0>         2.4258
     35 O5         -3.2911   -0.3951   10.0759 O.2       1 <0>        -0.9346
     36 O6         -3.3027    2.0151    9.6365 O.2       1 <0>        -0.9345
     37 C22        -5.5171    0.9277   10.5611 C.3       1 <0>        -0.6547
     38 H1          1.6738    0.5143    0.8252 H         1 <0>         0.0706
     39 H2          0.2839    1.2073   -0.0444 H         1 <0>         0.0616
     40 H3          0.1227    0.7457    1.6671 H         1 <0>         0.0591
     41 H4          0.6189   -1.1726   -0.6547 H         1 <0>         0.0686
     42 H5          0.1142   -1.6673    2.3147 H         1 <0>         0.0565
     43 H6          0.2694   -2.9249    1.0646 H         1 <0>         0.0633
     44 H7          1.6653   -1.8987    1.4728 H         1 <0>         0.0711
     45 H8         -4.4676   -0.7863    1.1363 H         1 <0>         0.2097
     46 H9         -4.6308   -1.6616   -3.7589 H         1 <0>         0.2229
     47 H10         0.3470   -1.2324   -2.0579 H         1 <0>         0.4293
     48 H11        -1.9296   -2.4678   -4.5540 H         1 <0>         0.2047
     49 H12         2.7523   -1.9000   -6.0328 H         1 <0>         0.1669
     50 H13        -3.0734   -3.1718   -5.8027 H         1 <0>         0.4076
     51 H14        -5.0559   -4.7250   -6.1638 H         1 <0>         0.0580
     52 H15        -5.4373   -3.0844   -6.7394 H         1 <0>         0.0590
     53 H16        -5.7617   -4.4908   -7.7810 H         1 <0>         0.1165
     54 H17        -1.0903   -0.4620    2.8203 H         1 <0>         0.4219
     55 H18        -4.4774    0.8674    5.2401 H         1 <0>         0.0779
     56 H19        -4.4690   -0.8837    5.5594 H         1 <0>         0.0779
     57 H20        -2.7614   -0.5532    7.3268 H         1 <0>         0.0955
     58 H21        -2.7699    1.1979    7.0075 H         1 <0>         0.0955
     59 H22        -5.1756    1.2944    7.6008 H         1 <0>         0.1383
     60 H23        -5.1671   -0.4567    7.9200 H         1 <0>         0.1382
     61 H24        -6.0924    0.0055   10.4799 H         1 <0>         0.1295
     62 H25        -5.2844    1.1198   11.6085 H         1 <0>         0.1331
     63 H26        -6.1009    1.7566   10.1607 H         1 <0>         0.1296
@<TRIPOS>BOND
     1    1    2 1
     2    1   38 1
     3    1   39 1
     4    1   40 1
     5    2    3 1
     6    2    4 1
     7    2   41 1
     8    3   42 1
     9    3   43 1
    10    3   44 1
    11    4    8 2
    12    4    5 1
    13    5    6 2
    14    5   27 1
    15    6    7 1
    16    6   45 1
    17    7   12 1
    18    7    8 1
    19    8    9 1
    20    9   10 2
    21    9   13 1
    22   10   11 1
    23   11   12 2
    24   11   46 1
    25   13   14 1
    26   13   47 1
    27   14   19 ar
    28   14   15 ar
    29   15   16 ar
    30   15   48 1
    31   16   17 ar
    32   16   22 1
    33   17   18 ar
    34   17   21 1
    35   18   19 ar
    36   18   49 1
    37   19   20 1
    38   22   23 2
    39   22   24 am
    40   24   25 1
    41   24   50 1
    42   25   26 1
    43   26   51 1
    44   26   52 1
    45   26   53 1
    46   27   28 am
    47   27   54 1
    48   28   29 2
    49   28   30 1
    50   30   31 1
    51   31   32 1
    52   31   55 1
    53   31   56 1
    54   32   33 1
    55   32   57 1
    56   32   58 1
    57   33   34 1
    58   33   59 1
    59   33   60 1
    60   34   35 2
    61   34   36 2
    62   34   37 1
    63   37   61 1
    64   37   62 1
    65   37   63 1
@<TRIPOS>MOLECULE
CHEMBL208775
   51    55     0     0     0
SMALL
USER_CHARGES

@<TRIPOS>ATOM
      1 C1         -0.0168    1.3846    0.0097 C.ar      1 <0>        -0.1523
      2 C2          0.0021   -0.0041    0.0020 C.ar      1 <0>        -0.0613
      3 C3         -1.1726   -0.7214    0.0089 C.ar      1 <0>        -0.1423
      4 C4         -2.3924   -0.0492    0.0242 C.ar      1 <0>         0.1277
      5 C5         -2.4060    1.3573    0.0323 C.ar      1 <0>        -0.1421
      6 C6         -1.2016    2.0634    0.0303 C.ar      1 <0>        -0.0304
      7 C7         -3.8190    1.7555    0.0470 C.2       1 <0>         0.1515
      8 N1         -4.5389    0.6572    0.0471 N.2       1 <0>        -0.2263
      9 H1         -3.9977   -1.3855    0.0307 H         1 <0>         0.4478
     10 N2         -3.7007   -0.4621    0.0333 N.pl3     1 <0>        -0.4897
     11 C8         -4.3362    3.1381    0.0599 C.2       1 <0>         0.3633
     12 N3         -3.5962    4.2205    0.0543 N.2       1 <0>        -0.4496
     13 C9         -4.3932    5.3175    0.0690 C.ar      1 <0>         0.0257
     14 C10        -4.1332    6.6921    0.0709 C.ar      1 <0>        -0.0128
     15 C11        -5.1687    7.5819    0.0879 C.ar      1 <0>        -0.2046
     16 C12        -6.4873    7.1353    0.1040 C.ar      1 <0>         0.1419
     17 C13        -6.7664    5.7802    0.1025 C.ar      1 <0>        -0.1450
     18 C14        -5.7243    4.8642    0.0848 C.ar      1 <0>         0.0961
     19 N4         -5.6624    3.4840    0.0735 N.pl3     1 <0>        -0.5825
     20 O1         -7.5059    8.0355    0.1218 O.3       1 <0>        -0.3109
     21 C15        -7.1490    9.4192    0.1228 C.3       1 <0>         0.0629
     22 C16        -8.4183   10.2732    0.1438 C.3       1 <0>        -0.1499
     23 C17        -8.0361   11.7547    0.1449 C.3       1 <0>        -0.0016
     24 N5         -9.2548   12.5748    0.1651 N.4       1 <0>        -0.3937
     25 C18        -9.9457   12.4334    1.4723 C.3       1 <0>        -0.0089
     26 C19       -10.8165   13.7123    1.5531 C.3       1 <0>        -0.1460
     27 C20        -9.9092   14.7893    0.9152 C.3       1 <0>        -0.1457
     28 C21        -8.9075   14.0074    0.0454 C.3       1 <0>        -0.0082
     29 H2          0.9139    1.9325    0.0037 H         1 <0>         0.1325
     30 H3          0.9475   -0.5261   -0.0098 H         1 <0>         0.1355
     31 H4         -1.1486   -1.8011    0.0022 H         1 <0>         0.1320
     32 H5         -1.2070    3.1434    0.0361 H         1 <0>         0.1409
     33 H6         -3.1141    7.0492    0.0592 H         1 <0>         0.1411
     34 H7         -4.9630    8.6422    0.0893 H         1 <0>         0.1350
     35 H8         -7.7903    5.4370    0.1154 H         1 <0>         0.1353
     36 H9         -6.5486    9.6388    1.0056 H         1 <0>         0.0744
     37 H10        -6.5729    9.6465   -0.7742 H         1 <0>         0.0748
     38 H11        -9.0187   10.0535   -0.7390 H         1 <0>         0.0986
     39 H12        -8.9944   10.0459    1.0408 H         1 <0>         0.0981
     40 H13        -7.4357   11.9744    1.0277 H         1 <0>         0.1335
     41 H14        -7.4600   11.9820   -0.7521 H         1 <0>         0.1343
     42 H15       -10.5711   11.5408    1.4823 H         1 <0>         0.1362
     43 H16        -9.2235   12.4075    2.2883 H         1 <0>         0.1347
     44 H17       -11.7343   13.5910    0.9777 H         1 <0>         0.0984
     45 H18       -11.0404   13.9616    2.5904 H         1 <0>         0.1170
     46 H19       -10.5008   15.4644    0.2969 H         1 <0>         0.1055
     47 H20        -9.3829   15.3475    1.6895 H         1 <0>         0.1042
     48 H21        -7.8926   14.1749    0.4063 H         1 <0>         0.1315
     49 H22        -8.9918   14.3244   -0.9941 H         1 <0>         0.1331
     50 H23        -9.8705   12.3021   -0.5863 H         1 <0>         0.4282
     51 H24        -6.4165    2.8738    0.0763 H         1 <0>         0.4321
@<TRIPOS>BOND
     1    1    2 ar
     2    1   29 1
     3    1    6 ar
     4    2    3 ar
     5    2   30 1
     6    3    4 ar
     7    3   31 1
     8    4   10 1
     9    4    5 ar
    10    5    6 ar
    11    5    7 1
    12    6   32 1
    13    7    8 2
    14    7   11 1
    15    8   10 1
    16    9   10 1
    17   11   19 1
    18   11   12 2
    19   12   13 1
    20   13   18 ar
    21   13   14 ar
    22   14   15 ar
    23   14   33 1
    24   15   16 ar
    25   15   34 1
    26   16   17 ar
    27   16   20 1
    28   17   18 ar
    29   17   35 1
    30   18   19 1
    31   19   51 1
    32   20   21 1
    33   21   22 1
    34   21   36 1
    35   21   37 1
    36   22   23 1
    37   22   38 1
    38   22   39 1
    39   23   24 1
    40   23   40 1
    41   23   41 1
    42   24   28 1
    43   24   25 1
    44   24   50 1
    45   25   26 1
    46   25   42 1
    47   25   43 1
    48   26   27 1
    49   26   44 1
    50   26   45 1
    51   27   28 1
    52   27   46 1
    53   27   47 1
    54   28   48 1
    55   28   49 1
@<TRIPOS>MOLECULE
CHEMBL208775__1
   51    55     0     0     0
SMALL
USER_CHARGES

@<TRIPOS>ATOM
      1 C1         -0.0168    1.3846    0.0097 C.ar      1 <0>        -0.1518
      2 C2          0.0021   -0.0041    0.0020 C.ar      1 <0>        -0.0613
      3 C3         -1.1726   -0.7214    0.0089 C.ar      1 <0>        -0.1418
      4 C4         -2.3924   -0.0492    0.0242 C.ar      1 <0>         0.1274
      5 C5         -2.4060    1.3573    0.0323 C.ar      1 <0>        -0.1412
      6 C6         -1.2016    2.0634    0.0303 C.ar      1 <0>        -0.0305
      7 C7         -3.8190    1.7555    0.0478 C.2       1 <0>         0.1478
      8 N1         -4.5389    0.6572    0.0483 N.2       1 <0>        -0.2238
      9 H1         -3.9977   -1.3855    0.0313 H         1 <0>         0.4482
     10 N2         -3.7007   -0.4621    0.0341 N.pl3     1 <0>        -0.4886
     11 C8         -4.3362    3.1380    0.0613 C.2       1 <0>         0.3786
     12 N3         -5.6610    3.4834    0.0811 N.pl3     1 <0>        -0.5817
     13 H2         -6.4150    2.8732    0.0887 H         1 <0>         0.4318
     14 C9         -5.7229    4.8656    0.0892 C.ar      1 <0>         0.0304
     15 C10        -6.7664    5.7801    0.1081 C.ar      1 <0>        -0.0647
     16 C11        -6.4963    7.1318    0.1115 C.ar      1 <0>        -0.1782
     17 C12        -5.1810    7.5878    0.0955 C.ar      1 <0>         0.1133
     18 C13        -4.1311    6.6921    0.0765 C.ar      1 <0>        -0.0937
     19 C14        -4.3917    5.3176    0.0734 C.ar      1 <0>         0.0929
     20 N4         -3.5957    4.2208    0.0618 N.2       1 <0>        -0.4618
     21 O1         -4.9291    8.9240    0.0981 O.3       1 <0>        -0.3107
     22 C15        -6.0599    9.7973    0.1176 C.3       1 <0>         0.0634
     23 C16        -5.5820   11.2508    0.1176 C.3       1 <0>        -0.1499
     24 C17        -6.7928   12.1858    0.1385 C.3       1 <0>        -0.0014
     25 N5         -6.3339   13.5813    0.1385 N.4       1 <0>        -0.3936
     26 C18        -5.7089   13.9150   -1.1669 C.3       1 <0>        -0.0089
     27 C19        -5.8065   15.4603   -1.2221 C.3       1 <0>        -0.1459
     28 C20        -7.1801   15.7433   -0.5718 C.3       1 <0>        -0.1457
     29 C21        -7.4865   14.4973    0.2796 C.3       1 <0>        -0.0081
     30 H3          0.9139    1.9325    0.0037 H         1 <0>         0.1326
     31 H4          0.9475   -0.5261   -0.0098 H         1 <0>         0.1357
     32 H5         -1.1486   -1.8011    0.0022 H         1 <0>         0.1323
     33 H6         -1.2070    3.1434    0.0364 H         1 <0>         0.1414
     34 H7         -7.7891    5.4332    0.1199 H         1 <0>         0.1330
     35 H8         -7.3102    7.8416    0.1263 H         1 <0>         0.1350
     36 H9         -3.1125    7.0508    0.0638 H         1 <0>         0.1429
     37 H10        -6.6738    9.6168   -0.7649 H         1 <0>         0.0720
     38 H11        -6.6493    9.6087    1.0149 H         1 <0>         0.0724
     39 H12        -4.9682   11.4314    1.0001 H         1 <0>         0.0991
     40 H13        -4.9926   11.4395   -0.7797 H         1 <0>         0.0985
     41 H14        -7.4066   12.0052   -0.7439 H         1 <0>         0.1328
     42 H15        -7.3821   11.9972    1.0358 H         1 <0>         0.1336
     43 H16        -4.6673   13.5943   -1.1880 H         1 <0>         0.1368
     44 H17        -6.2678   13.4647   -1.9873 H         1 <0>         0.1345
     45 H18        -5.0042   15.9183   -0.6436 H         1 <0>         0.0985
     46 H19        -5.7884   15.8113   -2.2538 H         1 <0>         0.1170
     47 H20        -7.1239   16.6292    0.0608 H         1 <0>         0.1054
     48 H21        -7.9426   15.8737   -1.3398 H         1 <0>         0.1039
     49 H22        -8.3926   14.0126   -0.0842 H         1 <0>         0.1310
     50 H23        -7.6086   14.7823    1.3245 H         1 <0>         0.1329
     51 H24        -5.6762   13.7317    0.8888 H         1 <0>         0.4285
@<TRIPOS>BOND
     1    1    2 ar
     2    1   30 1
     3    1    6 ar
     4    2    3 ar
     5    2   31 1
     6    3    4 ar
     7    3   32 1
     8    4   10 1
     9    4    5 ar
    10    5    6 ar
    11    5    7 1
    12    6   33 1
    13    7    8 2
    14    7   11 1
    15    8   10 1
    16    9   10 1
    17   11   20 2
    18   11   12 1
    19   12   13 1
    20   12   14 1
    21   14   19 ar
    22   14   15 ar
    23   15   16 ar
    24   15   34 1
    25   16   17 ar
    26   16   35 1
    27   17   18 ar
    28   17   21 1
    29   18   19 ar
    30   18   36 1
    31   19   20 1
    32   21   22 1
    33   22   23 1
    34   22   37 1
    35   22   38 1
    36   23   24 1
    37   23   39 1
    38   23   40 1
    39   24   25 1
    40   24   41 1
    41   24   42 1
    42   25   29 1
    43   25   26 1
    44   25   51 1
    45   26   27 1
    46   26   43 1
    47   26   44 1
    48   27   28 1
    49   27   45 1
    50   27   46 1
    51   28   29 1
    52   28   47 1
    53   28   48 1
    54   29   49 1
    55   29   50 1
@<TRIPOS>MOLECULE
CHEMBL209265
   49    53     0     0     0
SMALL
USER_CHARGES

@<TRIPOS>ATOM
      1 C1         -0.0178    1.4648    0.0101 C.3       1 <0>        -0.0457
      2 N1          0.0021   -0.0041    0.0020 N.4       1 <0>        -0.3882
      3 C2         -1.3761   -0.5122    0.0107 C.3       1 <0>        -0.0025
      4 C3         -1.3560   -2.0421   -0.0167 C.3       1 <0>         0.0248
      5 N2         -0.6244   -2.5407    1.1564 N.3       1 <0>        -0.5348
      6 C4          0.7499   -2.0201    1.1745 C.3       1 <0>         0.0197
      7 C5          0.7125   -0.4904    1.1921 C.3       1 <0>        -0.0028
      8 C6         -0.6316   -4.0091    1.1963 C.3       1 <0>         0.1032
      9 C7         -0.0938   -4.4782    2.5236 C.ar      1 <0>        -0.1052
     10 C8          1.2673   -4.7044    2.6719 C.ar      1 <0>        -0.0998
     11 C9          1.7773   -5.1339    3.8792 C.ar      1 <0>        -0.1025
     12 C10         0.9224   -5.3404    4.9528 C.ar      1 <0>         0.0612
     13 C11        -0.4568   -5.1108    4.8029 C.ar      1 <0>         0.0541
     14 C12        -0.9503   -4.6709    3.5701 C.ar      1 <0>        -0.0286
     15 N3         -1.0411   -5.3886    5.9937 N.2       1 <0>        -0.4572
     16 C13        -0.1276   -5.7686    6.8548 C.2       1 <0>         0.3706
     17 N4          1.1051   -5.7553    6.2580 N.pl3     1 <0>        -0.5826
     18 H1          1.9487   -5.9927    6.6738 H         1 <0>         0.4320
     19 C14        -0.3886   -6.1520    8.2563 C.2       1 <0>         0.1476
     20 C15        -1.6977   -6.1749    8.9206 C.ar      1 <0>        -0.1417
     21 C16        -2.9977   -5.8778    8.5076 C.ar      1 <0>        -0.0311
     22 C17        -4.0347   -6.0020    9.3876 C.ar      1 <0>        -0.1517
     23 C18        -3.8082   -6.4218   10.6920 C.ar      1 <0>        -0.0613
     24 C19        -2.5351   -6.7202   11.1215 C.ar      1 <0>        -0.1413
     25 C20        -1.4629   -6.6004   10.2405 C.ar      1 <0>         0.1275
     26 N5         -0.1131   -6.8162   10.3575 N.pl3     1 <0>        -0.4886
     27 N6          0.5069   -6.5403    9.1347 N.2       1 <0>        -0.2245
     28 H2          0.3397   -7.1164   11.1610 H         1 <0>         0.4484
     29 H3          1.0047    1.8421    0.0024 H         1 <0>         0.1236
     30 H4         -0.5450    1.8259   -0.8730 H         1 <0>         0.1240
     31 H5         -0.5280    1.8163    0.9069 H         1 <0>         0.1229
     32 H6         -1.8832   -0.1716    0.9134 H         1 <0>         0.1378
     33 H7         -1.9060   -0.1400   -0.8661 H         1 <0>         0.1356
     34 H8         -2.3783   -2.4196    0.0047 H         1 <0>         0.1249
     35 H9         -0.8610   -2.3831   -0.9260 H         1 <0>         0.0611
     36 H10         1.2641   -2.3816    2.0650 H         1 <0>         0.1272
     37 H11         1.2796   -2.3607    0.2848 H         1 <0>         0.0608
     38 H12         1.7310   -0.1020    1.1912 H         1 <0>         0.1346
     39 H13         0.1947   -0.1499    2.0888 H         1 <0>         0.1373
     40 H14        -1.6519   -4.3710    1.0694 H         1 <0>         0.0987
     41 H15        -0.0057   -4.3975    0.3929 H         1 <0>         0.0580
     42 H16         1.9318   -4.5434    1.8359 H         1 <0>         0.1277
     43 H17         2.8374   -5.3090    3.9886 H         1 <0>         0.1291
     44 H18        -2.0073   -4.4879    3.4448 H         1 <0>         0.1345
     45 H19        -3.1829   -5.5504    7.4952 H         1 <0>         0.1405
     46 H20        -5.0397   -5.7714    9.0665 H         1 <0>         0.1326
     47 H21        -4.6389   -6.5146   11.3759 H         1 <0>         0.1359
     48 H22        -2.3680   -7.0455   12.1377 H         1 <0>         0.1325
     49 H23         0.4748   -0.3293   -0.8280 H         1 <0>         0.4220
@<TRIPOS>BOND
     1    1    2 1
     2    1   29 1
     3    1   30 1
     4    1   31 1
     5    2    7 1
     6    2    3 1
     7    2   49 1
     8    3    4 1
     9    3   32 1
    10    3   33 1
    11    4    5 1
    12    4   34 1
    13    4   35 1
    14    5    6 1
    15    5    8 1
    16    6    7 1
    17    6   36 1
    18    6   37 1
    19    7   38 1
    20    7   39 1
    21    8    9 1
    22    8   40 1
    23    8   41 1
    24    9   14 ar
    25    9   10 ar
    26   10   11 ar
    27   10   42 1
    28   11   12 ar
    29   11   43 1
    30   12   17 1
    31   12   13 ar
    32   13   14 ar
    33   13   15 1
    34   14   44 1
    35   15   16 2
    36   16   17 1
    37   16   19 1
    38   17   18 1
    39   19   20 1
    40   19   27 2
    41   20   21 ar
    42   20   25 ar
    43   21   22 ar
    44   21   45 1
    45   22   23 ar
    46   22   46 1
    47   23   24 ar
    48   23   47 1
    49   24   25 ar
    50   24   48 1
    51   25   26 1
    52   26   27 1
    53   26   28 1
@<TRIPOS>MOLECULE
CHEMBL209265__1
   49    53     0     0     0
SMALL
USER_CHARGES

@<TRIPOS>ATOM
      1 C1         -0.0178    1.4648    0.0101 C.3       1 <0>         0.0194
      2 N1          0.0021   -0.0041    0.0020 N.3       1 <0>        -0.5432
      3 C2         -1.3607   -0.5489   -0.0764 C.3       1 <0>         0.0240
      4 C3         -1.2932   -2.0762   -0.1426 C.3       1 <0>        -0.0024
      5 N2         -0.6107   -2.5886    1.0529 N.4       1 <0>        -0.3862
      6 C4          0.7570   -2.0553    1.1043 C.3       1 <0>        -0.0065
      7 C5          0.7065   -0.5278    1.1808 C.3       1 <0>         0.0253
      8 C6         -0.5621   -4.0557    0.9977 C.3       1 <0>         0.0503
      9 C7          0.0271   -4.5874    2.2788 C.ar      1 <0>        -0.1646
     10 C8          1.3990   -4.7695    2.3802 C.ar      1 <0>        -0.0936
     11 C9          1.9558   -5.2551    3.5448 C.ar      1 <0>        -0.0902
     12 C10         1.1372   -5.5629    4.6225 C.ar      1 <0>         0.0753
     13 C11        -0.2530   -5.3780    4.5201 C.ar      1 <0>         0.0536
     14 C12        -0.7943   -4.8798    3.3304 C.ar      1 <0>        -0.0247
     15 N3         -0.7955   -5.7539    5.7038 N.2       1 <0>        -0.4567
     16 C13         0.1536   -6.1523    6.5168 C.2       1 <0>         0.3872
     17 N4          1.3691   -6.0529    5.8934 N.pl3     1 <0>        -0.5789
     18 H1          2.2314   -6.2835    6.2730 H         1 <0>         0.4368
     19 C14        -0.0566   -6.6344    7.8962 C.2       1 <0>         0.1374
     20 C15        -1.3462   -6.7506    8.5881 C.ar      1 <0>        -0.1406
     21 C16        -2.6668   -6.4785    8.2258 C.ar      1 <0>        -0.0341
     22 C17        -3.6752   -6.6989    9.1200 C.ar      1 <0>        -0.1485
     23 C18        -3.3996   -7.1921   10.3887 C.ar      1 <0>        -0.0605
     24 C19        -2.1055   -7.4676   10.7680 C.ar      1 <0>        -0.1386
     25 C20        -1.0617   -7.2501    9.8718 C.ar      1 <0>         0.1274
     26 N5          0.2978   -7.4203    9.9428 N.pl3     1 <0>        -0.4842
     27 N6          0.8753   -7.0429    8.7263 N.2       1 <0>        -0.2184
     28 H2          0.7821   -7.7534   10.7144 H         1 <0>         0.4500
     29 H3          1.0047    1.8421    0.0024 H         1 <0>         0.0836
     30 H4         -0.5450    1.8259   -0.8730 H         1 <0>         0.0836
     31 H5         -0.5280    1.8163    0.9069 H         1 <0>         0.0390
     32 H6         -1.9242   -0.2477    0.8067 H         1 <0>         0.0601
     33 H7         -1.8539   -0.1676   -0.9705 H         1 <0>         0.1236
     34 H8         -2.3035   -2.4830   -0.1865 H         1 <0>         0.1368
     35 H9         -0.7413   -2.3773   -1.0330 H         1 <0>         0.1385
     36 H10         1.2666   -2.4465    1.9848 H         1 <0>         0.1366
     37 H11         1.2983   -2.3564    0.2075 H         1 <0>         0.1377
     38 H12         1.7215   -0.1310    1.2040 H         1 <0>         0.1222
     39 H13         0.1771   -0.2262    2.0846 H         1 <0>         0.0594
     40 H14        -1.5711   -4.4482    0.8715 H         1 <0>         0.1390
     41 H15         0.0569   -4.3674    0.1563 H         1 <0>         0.1393
     42 H16         2.0352   -4.5297    1.5410 H         1 <0>         0.1406
     43 H17         3.0241   -5.3955    3.6177 H         1 <0>         0.1389
     44 H18        -1.8602   -4.7303    3.2420 H         1 <0>         0.1413
     45 H19        -2.8901   -6.0945    7.2414 H         1 <0>         0.1393
     46 H20        -4.6961   -6.4876    8.8381 H         1 <0>         0.1335
     47 H21        -4.2082   -7.3606   11.0844 H         1 <0>         0.1375
     48 H22        -1.9002   -7.8505   11.7568 H         1 <0>         0.1342
     49 H23        -1.1152   -2.2999    1.8777 H         1 <0>         0.4202
@<TRIPOS>BOND
     1    1    2 1
     2    1   29 1
     3    1   30 1
     4    1   31 1
     5    2    7 1
     6    2    3 1
     7    3    4 1
     8    3   32 1
     9    3   33 1
    10    4    5 1
    11    4   34 1
    12    4   35 1
    13    5    6 1
    14    5    8 1
    15    5   49 1
    16    6    7 1
    17    6   36 1
    18    6   37 1
    19    7   38 1
    20    7   39 1
    21    8    9 1
    22    8   40 1
    23    8   41 1
    24    9   14 ar
    25    9   10 ar
    26   10   11 ar
    27   10   42 1
    28   11   12 ar
    29   11   43 1
    30   12   17 1
    31   12   13 ar
    32   13   14 ar
    33   13   15 1
    34   14   44 1
    35   15   16 2
    36   16   17 1
    37   16   19 1
    38   17   18 1
    39   19   20 1
    40   19   27 2
    41   20   21 ar
    42   20   25 ar
    43   21   22 ar
    44   21   45 1
    45   22   23 ar
    46   22   46 1
    47   23   24 ar
    48   23   47 1
    49   24   25 ar
    50   24   48 1
    51   25   26 1
    52   26   27 1
    53   26   28 1
@<TRIPOS>MOLECULE
CHEMBL209783
   41    45     0     0     0
SMALL
USER_CHARGES

@<TRIPOS>ATOM
      1 C1         -0.0166    1.3848    0.0099 C.ar      1 <0>        -0.1570
      2 C2          0.0025   -0.0039    0.0148 C.ar      1 <0>        -0.0629
      3 C3         -1.1720   -0.7212    0.0387 C.ar      1 <0>        -0.1460
      4 C4         -2.3918   -0.0491    0.0582 C.ar      1 <0>         0.1280
      5 C5         -2.4055    1.3574    0.0531 C.ar      1 <0>        -0.1436
      6 C6         -1.2014    2.0636    0.0340 C.ar      1 <0>        -0.0264
      7 C7         -3.8185    1.7555    0.0771 C.2       1 <0>         0.1662
      8 N1         -4.5380    0.6572    0.0942 N.2       1 <0>        -0.2345
      9 H1         -3.9966   -1.3855    0.0922 H         1 <0>         0.4454
     10 N2         -3.6998   -0.4621    0.0833 N.pl3     1 <0>        -0.4955
     11 C8         -4.3358    3.1381    0.0811 C.2       1 <0>         0.3338
     12 N3         -3.5962    4.2204    0.0580 N.2       1 <0>        -0.4430
     13 C9         -4.3933    5.3176    0.0696 C.ar      1 <0>        -0.0020
     14 C10        -4.1327    6.6922    0.0561 C.ar      1 <0>        -0.0071
     15 C11        -5.1669    7.5829    0.0747 C.ar      1 <0>        -0.1876
     16 C12        -6.4871    7.1367    0.1073 C.ar      1 <0>         0.2479
     17 C13        -6.7663    5.7799    0.1212 C.ar      1 <0>        -0.2140
     18 C14        -5.7241    4.8643    0.1025 C.ar      1 <0>         0.1154
     19 N4         -5.6622    3.4840    0.1037 N.pl3     1 <0>        -0.5883
     20 N5         -7.5343    8.0628    0.1265 N.pl3     1 <0>        -0.6282
     21 C15        -8.9360    7.6230    0.0418 C.3       1 <0>         0.0846
     22 C16        -9.7200    8.2848    1.1808 C.3       1 <0>         0.0454
     23 O1         -9.4943    9.6961    1.1497 O.3       1 <0>        -0.3788
     24 C17        -8.1326   10.0760    1.3623 C.3       1 <0>         0.0449
     25 C18        -7.2675    9.5056    0.2382 C.3       1 <0>         0.0857
     26 H2          0.9139    1.9328   -0.0086 H         1 <0>         0.1311
     27 H3          0.9478   -0.5259   -0.0006 H         1 <0>         0.1330
     28 H4         -1.1478   -1.8009    0.0420 H         1 <0>         0.1295
     29 H5         -1.2070    3.1436    0.0299 H         1 <0>         0.1420
     30 H6         -3.1134    7.0485    0.0312 H         1 <0>         0.1358
     31 H7         -4.9604    8.6429    0.0645 H         1 <0>         0.1337
     32 H8         -7.7899    5.4366    0.1461 H         1 <0>         0.1250
     33 H9         -9.3577    7.9238   -0.9173 H         1 <0>         0.0734
     34 H10        -8.9873    6.5389    0.1422 H         1 <0>         0.0928
     35 H11       -10.7838    8.0833    1.0556 H         1 <0>         0.1055
     36 H12        -9.3826    7.8831    2.1363 H         1 <0>         0.0564
     37 H13        -8.0545   11.1631    1.3676 H         1 <0>         0.1070
     38 H14        -7.7895    9.6808    2.3185 H         1 <0>         0.0565
     39 H15        -6.2146    9.6675    0.4687 H         1 <0>         0.0956
     40 H16        -7.5184    9.9991   -0.7007 H         1 <0>         0.0733
     41 H17        -6.4161    2.8739    0.1199 H         1 <0>         0.4268
@<TRIPOS>BOND
     1    1    2 ar
     2    1   26 1
     3    1    6 ar
     4    2    3 ar
     5    2   27 1
     6    3    4 ar
     7    3   28 1
     8    4   10 1
     9    4    5 ar
    10    5    6 ar
    11    5    7 1
    12    6   29 1
    13    7    8 2
    14    7   11 1
    15    8   10 1
    16    9   10 1
    17   11   19 1
    18   11   12 2
    19   12   13 1
    20   13   18 ar
    21   13   14 ar
    22   14   15 ar
    23   14   30 1
    24   15   16 ar
    25   15   31 1
    26   16   17 ar
    27   16   20 1
    28   17   18 ar
    29   17   32 1
    30   18   19 1
    31   19   41 1
    32   20   25 1
    33   20   21 1
    34   21   22 1
    35   21   33 1
    36   21   34 1
    37   22   23 1
    38   22   35 1
    39   22   36 1
    40   23   24 1
    41   24   25 1
    42   24   37 1
    43   24   38 1
    44   25   39 1
    45   25   40 1
@<TRIPOS>MOLECULE
CHEMBL209783__1
   41    45     0     0     0
SMALL
USER_CHARGES

@<TRIPOS>ATOM
      1 C1         -0.0181    1.3850   -0.0663 C.ar      1 <0>        -0.1559
      2 C2          0.0007   -0.0037   -0.0772 C.ar      1 <0>        -0.0626
      3 C3         -1.1739   -0.7210   -0.0579 C.ar      1 <0>        -0.1453
      4 C4         -2.3934   -0.0489   -0.0265 C.ar      1 <0>         0.1274
      5 C5         -2.4069    1.3576   -0.0150 C.ar      1 <0>        -0.1422
      6 C6         -1.2026    2.0637   -0.0299 C.ar      1 <0>        -0.0266
      7 C7         -3.8196    1.7556    0.0179 C.2       1 <0>         0.1600
      8 N1         -4.5394    0.6574    0.0242 N.2       1 <0>        -0.2300
      9 H1         -3.9985   -1.3853   -0.0037 H         1 <0>         0.4460
     10 N2         -3.7015   -0.4619   -0.0023 N.pl3     1 <0>        -0.4938
     11 C8         -4.3366    3.1382    0.0405 C.2       1 <0>         0.3597
     12 N3         -5.6611    3.4833    0.0765 N.pl3     1 <0>        -0.5826
     13 H2         -6.4149    2.8731    0.0915 H         1 <0>         0.4270
     14 C9         -5.7228    4.8659    0.0881 C.ar      1 <0>         0.0112
     15 C10        -6.7666    5.7800    0.1205 C.ar      1 <0>        -0.0633
     16 C11        -6.4977    7.1316    0.1227 C.ar      1 <0>        -0.1568
     17 C12        -5.1814    7.5890    0.0922 C.ar      1 <0>         0.2149
     18 C13        -4.1306    6.6920    0.0593 C.ar      1 <0>        -0.1573
     19 C14        -4.3919    5.3178    0.0576 C.ar      1 <0>         0.1016
     20 N4         -3.5961    4.2210    0.0348 N.2       1 <0>        -0.4667
     21 N5         -4.9224    8.9640    0.0944 N.pl3     1 <0>        -0.6330
     22 C15        -3.5454    9.4753    0.1818 C.3       1 <0>         0.0859
     23 C16        -3.3370   10.4974   -0.9416 C.3       1 <0>         0.0452
     24 O1         -4.3809   11.4728   -0.8901 O.3       1 <0>        -0.3795
     25 C17        -5.6901   10.9408   -1.1061 C.3       1 <0>         0.0452
     26 C18        -6.0187    9.9414    0.0032 C.3       1 <0>         0.0880
     27 H3          0.9124    1.9329   -0.0821 H         1 <0>         0.1314
     28 H4          0.9458   -0.5256   -0.1016 H         1 <0>         0.1334
     29 H5         -1.1499   -1.8007   -0.0673 H         1 <0>         0.1299
     30 H6         -1.2080    3.1437   -0.0216 H         1 <0>         0.1424
     31 H7         -7.7888    5.4324    0.1435 H         1 <0>         0.1276
     32 H8         -7.3119    7.8408    0.1479 H         1 <0>         0.1338
     33 H9         -3.1122    7.0505    0.0350 H         1 <0>         0.1323
     34 H10        -3.3929    9.9558    1.1482 H         1 <0>         0.0718
     35 H11        -2.8401    8.6525    0.0649 H         1 <0>         0.0951
     36 H12        -2.3727   10.9889   -0.8123 H         1 <0>         0.1054
     37 H13        -3.3609    9.9889   -1.9054 H         1 <0>         0.0565
     38 H14        -6.4188   11.7513   -1.0952 H         1 <0>         0.1051
     39 H15        -5.7226   10.4340   -2.0705 H         1 <0>         0.0556
     40 H16        -6.9505    9.4270   -0.2319 H         1 <0>         0.0919
     41 H17        -6.1194   10.4696    0.9513 H         1 <0>         0.0711
@<TRIPOS>BOND
     1    1    2 ar
     2    1   27 1
     3    1    6 ar
     4    2    3 ar
     5    2   28 1
     6    3    4 ar
     7    3   29 1
     8    4   10 1
     9    4    5 ar
    10    5    6 ar
    11    5    7 1
    12    6   30 1
    13    7    8 2
    14    7   11 1
    15    8   10 1
    16    9   10 1
    17   11   20 2
    18   11   12 1
    19   12   13 1
    20   12   14 1
    21   14   19 ar
    22   14   15 ar
    23   15   16 ar
    24   15   31 1
    25   16   17 ar
    26   16   32 1
    27   17   18 ar
    28   17   21 1
    29   18   19 ar
    30   18   33 1
    31   19   20 1
    32   21   26 1
    33   21   22 1
    34   22   23 1
    35   22   34 1
    36   22   35 1
    37   23   24 1
    38   23   36 1
    39   23   37 1
    40   24   25 1
    41   25   26 1
    42   25   38 1
    43   25   39 1
    44   26   40 1
    45   26   41 1
@<TRIPOS>MOLECULE
CHEMBL208600
   46    50     0     0     0
SMALL
USER_CHARGES

@<TRIPOS>ATOM
      1 C1         -0.0385    1.4645   -0.0018 C.3       1 <0>        -0.0470
      2 N1         -0.0080   -0.0042   -0.0038 N.4       1 <0>        -0.3840
      3 C2         -1.3825   -0.5205   -0.0144 C.3       1 <0>        -0.0239
      4 C3         -1.3524   -2.0480   -0.1322 C.3       1 <0>         0.0993
      5 N2         -0.5114   -2.5826    0.9500 N.pl3     1 <0>        -0.6417
      6 C4          0.8284   -2.0044    1.1368 C.3       1 <0>         0.0987
      7 C5          0.6953   -0.4790    1.1946 C.3       1 <0>        -0.0228
      8 C6         -0.9721   -3.6113    1.7770 C.ar      1 <0>         0.2209
      9 C7         -2.2842   -4.0654    1.6540 C.ar      1 <0>        -0.1840
     10 C8         -2.7500   -5.0689    2.4536 C.ar      1 <0>        -0.0051
     11 C9         -1.9079   -5.6515    3.4069 C.ar      1 <0>         0.0180
     12 C10        -0.5834   -5.1958    3.5332 C.ar      1 <0>         0.1027
     13 C11        -0.1208   -4.1785    2.7112 C.ar      1 <0>        -0.1888
     14 N3         -0.0100   -5.9489    4.5397 N.pl3     1 <0>        -0.5859
     15 C12        -0.9684   -6.8196    4.9902 C.2       1 <0>         0.3596
     16 N4         -2.0808   -6.6392    4.3201 N.2       1 <0>        -0.4471
     17 C13        -0.7766   -7.8113    6.0667 C.2       1 <0>         0.1514
     18 C14        -1.7841   -8.7543    6.5679 C.ar      1 <0>        -0.1427
     19 C15        -3.1164   -9.0117    6.2400 C.ar      1 <0>        -0.0307
     20 C16        -3.8048   -9.9831    6.9091 C.ar      1 <0>        -0.1518
     21 C17        -3.1912  -10.7188    7.9146 C.ar      1 <0>        -0.0608
     22 C18        -1.8789  -10.4823    8.2554 C.ar      1 <0>        -0.1424
     23 C19        -1.1580   -9.4966    7.5855 C.ar      1 <0>         0.1277
     24 N5          0.1290   -9.0321    7.6858 N.pl3     1 <0>        -0.4899
     25 N6          0.3280   -8.0150    6.7469 N.2       1 <0>        -0.2286
     26 H1          0.7971   -9.3603    8.3076 H         1 <0>         0.4477
     27 H2          0.9814    1.8491   -0.0019 H         1 <0>         0.1248
     28 H3         -0.5603    1.8182   -0.8910 H         1 <0>         0.1255
     29 H4         -0.5592    1.8159    0.8890 H         1 <0>         0.1218
     30 H5         -1.8844   -0.2371    0.9107 H         1 <0>         0.1333
     31 H6         -1.9217   -0.1011   -0.8638 H         1 <0>         0.1419
     32 H7         -2.3642   -2.4425   -0.0387 H         1 <0>         0.1297
     33 H8         -0.9327   -2.3328   -1.0970 H         1 <0>         0.0896
     34 H9          1.2584   -2.3701    2.0692 H         1 <0>         0.1255
     35 H10         1.4683   -2.2848    0.3001 H         1 <0>         0.0888
     36 H11         1.6872   -0.0290    1.2362 H         1 <0>         0.1408
     37 H12         0.1305   -0.1968    2.0832 H         1 <0>         0.1329
     38 H13        -2.9383   -3.6190    0.9196 H         1 <0>         0.1332
     39 H14        -3.7686   -5.4128    2.3505 H         1 <0>         0.1412
     40 H15         0.8968   -3.8280    2.8016 H         1 <0>         0.1255
     41 H16        -3.6015   -8.4441    5.4596 H         1 <0>         0.1409
     42 H17        -4.8356  -10.1806    6.6543 H         1 <0>         0.1329
     43 H18        -3.7493  -11.4835    8.4344 H         1 <0>         0.1358
     44 H19        -1.4099  -11.0587    9.0391 H         1 <0>         0.1321
     45 H20         0.9004   -5.8756    4.8663 H         1 <0>         0.4301
     46 H21         0.4768   -0.3282   -0.8272 H         1 <0>         0.4248
@<TRIPOS>BOND
     1    1    2 1
     2    1   27 1
     3    1   28 1
     4    1   29 1
     5    2    7 1
     6    2    3 1
     7    2   46 1
     8    3    4 1
     9    3   30 1
    10    3   31 1
    11    4    5 1
    12    4   32 1
    13    4   33 1
    14    5    6 1
    15    5    8 1
    16    6    7 1
    17    6   34 1
    18    6   35 1
    19    7   36 1
    20    7   37 1
    21    8   13 ar
    22    8    9 ar
    23    9   10 ar
    24    9   38 1
    25   10   11 ar
    26   10   39 1
    27   11   16 1
    28   11   12 ar
    29   12   13 ar
    30   12   14 1
    31   13   40 1
    32   14   15 1
    33   14   45 1
    34   15   16 2
    35   15   17 1
    36   17   18 1
    37   17   25 2
    38   18   19 ar
    39   18   23 ar
    40   19   20 ar
    41   19   41 1
    42   20   21 ar
    43   20   42 1
    44   21   22 ar
    45   21   43 1
    46   22   23 ar
    47   22   44 1
    48   23   24 1
    49   24   25 1
    50   24   26 1
@<TRIPOS>MOLECULE
CHEMBL208600__1
   46    50     0     0     0
SMALL
USER_CHARGES

@<TRIPOS>ATOM
      1 C1         -0.0387    1.4645   -0.0019 C.3       1 <0>        -0.0469
      2 N1         -0.0081   -0.0042   -0.0038 N.4       1 <0>        -0.3839
      3 C2         -1.3826   -0.5206   -0.0146 C.3       1 <0>        -0.0237
      4 C3         -1.3523   -2.0481   -0.1322 C.3       1 <0>         0.1007
      5 N2         -0.5114   -2.5826    0.9500 N.pl3     1 <0>        -0.6441
      6 C4          0.8283   -2.0043    1.1369 C.3       1 <0>         0.0992
      7 C5          0.6951   -0.4789    1.1946 C.3       1 <0>        -0.0230
      8 C6         -0.9728   -3.6115    1.7783 C.ar      1 <0>         0.1922
      9 C7         -2.2853   -4.0644    1.6552 C.ar      1 <0>        -0.1577
     10 C8         -2.7523   -5.0771    2.4648 C.ar      1 <0>        -0.0564
     11 C9         -1.9134   -5.6521    3.4091 C.ar      1 <0>         0.0223
     12 C10        -0.5879   -5.2022    3.5402 C.ar      1 <0>         0.0990
     13 C11        -0.1230   -4.1769    2.7099 C.ar      1 <0>        -0.1381
     14 N3         -0.0116   -5.9330    4.5254 N.2       1 <0>        -0.4684
     15 C12        -0.8805   -6.7915    5.0040 C.2       1 <0>         0.3801
     16 N4         -2.0738   -6.6578    4.3463 N.pl3     1 <0>        -0.5809
     17 H1         -2.8807   -7.1717    4.5070 H         1 <0>         0.4319
     18 C13        -0.6120   -7.7563    6.0885 C.2       1 <0>         0.1457
     19 C14         0.6560   -7.9204    6.8102 C.ar      1 <0>        -0.1412
     20 C15         1.9019   -7.2955    6.7319 C.ar      1 <0>        -0.0313
     21 C16         2.9106   -7.6854    7.5659 C.ar      1 <0>        -0.1519
     22 C17         2.7089   -8.6999    8.4928 C.ar      1 <0>        -0.0616
     23 C18         1.4891   -9.3303    8.5881 C.ar      1 <0>        -0.1408
     24 C19         0.4464   -8.9480    7.7475 C.ar      1 <0>         0.1274
     25 N5         -0.8511   -9.3679    7.5977 N.pl3     1 <0>        -0.4880
     26 N6         -1.4653   -8.6206    6.5877 N.2       1 <0>        -0.2227
     27 H2         -1.2767  -10.0704    8.1136 H         1 <0>         0.4486
     28 H3          0.9812    1.8491   -0.0020 H         1 <0>         0.1249
     29 H4         -0.5605    1.8182   -0.8911 H         1 <0>         0.1246
     30 H5         -0.5595    1.8159    0.8888 H         1 <0>         0.1214
     31 H6         -1.8846   -0.2372    0.9105 H         1 <0>         0.1325
     32 H7         -1.9217   -0.1013   -0.8640 H         1 <0>         0.1403
     33 H8         -2.3641   -2.4427   -0.0388 H         1 <0>         0.1266
     34 H9         -0.9326   -2.3329   -1.0970 H         1 <0>         0.0881
     35 H10         1.2583   -2.3699    2.0694 H         1 <0>         0.1282
     36 H11         1.4683   -2.2847    0.3003 H         1 <0>         0.0883
     37 H12         1.6870   -0.0288    1.2362 H         1 <0>         0.1409
     38 H13         0.1303   -0.1968    2.0831 H         1 <0>         0.1327
     39 H14        -2.9402   -3.6187    0.9212 H         1 <0>         0.1333
     40 H15        -3.7706   -5.4228    2.3647 H         1 <0>         0.1330
     41 H16         0.8944   -3.8259    2.7993 H         1 <0>         0.1329
     42 H17         2.0677   -6.5062    6.0136 H         1 <0>         0.1401
     43 H18         3.8738   -7.2008    7.5040 H         1 <0>         0.1322
     44 H19         3.5170   -8.9971    9.1447 H         1 <0>         0.1359
     45 H20         1.3412  -10.1184    9.3115 H         1 <0>         0.1327
     46 H21         0.4768   -0.3282   -0.8272 H         1 <0>         0.4247
@<TRIPOS>BOND
     1    1    2 1
     2    1   28 1
     3    1   29 1
     4    1   30 1
     5    2    7 1
     6    2    3 1
     7    2   46 1
     8    3    4 1
     9    3   31 1
    10    3   32 1
    11    4    5 1
    12    4   33 1
    13    4   34 1
    14    5    6 1
    15    5    8 1
    16    6    7 1
    17    6   35 1
    18    6   36 1
    19    7   37 1
    20    7   38 1
    21    8   13 ar
    22    8    9 ar
    23    9   10 ar
    24    9   39 1
    25   10   11 ar
    26   10   40 1
    27   11   16 1
    28   11   12 ar
    29   12   13 ar
    30   12   14 1
    31   13   41 1
    32   14   15 2
    33   15   16 1
    34   15   18 1
    35   16   17 1
    36   18   19 1
    37   18   26 2
    38   19   20 ar
    39   19   24 ar
    40   20   21 ar
    41   20   42 1
    42   21   22 ar
    43   21   43 1
    44   22   23 ar
    45   22   44 1
    46   23   24 ar
    47   23   45 1
    48   24   25 1
    49   25   26 1
    50   25   27 1
@<TRIPOS>MOLECULE
CHEMBL296540
   39    41     0     0     0
SMALL
USER_CHARGES

@<TRIPOS>ATOM
      1 C1         -0.0178    1.4608    0.0101 C.3       1 <0>         0.0706
      2 N1          0.0021   -0.0041    0.0020 N.am      1 <0>        -0.5078
      3 C2         -1.1807   -0.6992    0.0039 C.ar      1 <0>         0.4659
      4 C3         -1.1792   -2.1109   -0.0043 C.ar      1 <0>        -0.2863
      5 C4          0.0431   -2.8208   -0.0144 C.2       1 <0>         0.0256
      6 C5          1.2184   -2.1186   -0.0162 C.2       1 <0>        -0.1626
      7 C6          1.1813   -0.6547   -0.0127 C.2       1 <0>         0.5519
      8 O1          2.2223   -0.0221   -0.0193 O.2       1 <0>        -0.5039
      9 C7          2.5163   -2.8334   -0.0266 C.ar      1 <0>         0.0508
     10 C8          3.3770   -2.7348    1.0654 C.ar      1 <0>        -0.1574
     11 C9          4.5894   -3.4049    1.0524 C.ar      1 <0>         0.1675
     12 C10         4.9476   -4.1730   -0.0460 C.ar      1 <0>        -0.2928
     13 C11         4.0934   -4.2734   -1.1346 C.ar      1 <0>         0.1662
     14 C12         2.8769   -3.6107   -1.1261 C.ar      1 <0>        -0.1713
     15 O2          4.4485   -5.0266   -2.2087 O.3       1 <0>        -0.3128
     16 C13         5.7145   -5.6866   -2.1483 C.3       1 <0>         0.0261
     17 O3          5.4292   -3.3094    2.1166 O.3       1 <0>        -0.3122
     18 C14         6.6627   -4.0262    2.0360 C.3       1 <0>         0.0261
     19 C15        -2.4104   -2.7833   -0.0025 C.ar      1 <0>         0.2686
     20 N2         -3.5204   -2.0690    0.0067 N.ar      1 <0>        -0.5837
     21 C16        -3.4835   -0.7411    0.0141 C.ar      1 <0>         0.6140
     22 N3         -2.3465   -0.0625    0.0128 N.ar      1 <0>        -0.6039
     23 N4         -4.6745   -0.0429    0.0231 N.pl3     1 <0>        -0.8061
     24 H1          1.0048    1.8381    0.0023 H         1 <0>         0.1000
     25 H2         -0.5450    1.8219   -0.8730 H         1 <0>         0.0792
     26 H3         -0.5280    1.8123    0.9069 H         1 <0>         0.0794
     27 H4          0.0498   -3.9008   -0.0203 H         1 <0>         0.1525
     28 H5          3.0992   -2.1365    1.9205 H         1 <0>         0.1318
     29 H6          5.8937   -4.6938   -0.0538 H         1 <0>         0.1354
     30 H7          2.2107   -3.6926   -1.9722 H         1 <0>         0.1347
     31 H8          5.7297   -6.3661   -1.2961 H         1 <0>         0.0558
     32 H9          5.8738   -6.2518   -3.0666 H         1 <0>         0.1029
     33 H10         6.5057   -4.9453   -2.0360 H         1 <0>         0.0556
     34 H11         7.2345   -3.6704    1.1789 H         1 <0>         0.0557
     35 H12         7.2371   -3.8647    2.9483 H         1 <0>         0.1028
     36 H13         6.4576   -5.0904    1.9194 H         1 <0>         0.0556
     37 H14        -2.4493   -3.8626   -0.0089 H         1 <0>         0.1868
     38 H15        -5.5177   -0.5223    0.0239 H         1 <0>         0.4207
     39 H16        -4.6680    0.9270    0.0286 H         1 <0>         0.4186
@<TRIPOS>BOND
     1    1    2 1
     2    1   24 1
     3    1   25 1
     4    1   26 1
     5    2    7 am
     6    2    3 1
     7    3   22 ar
     8    3    4 ar
     9    4    5 1
    10    4   19 ar
    11    5    6 2
    12    5   27 1
    13    6    7 1
    14    6    9 1
    15    7    8 2
    16    9   14 ar
    17    9   10 ar
    18   10   11 ar
    19   10   28 1
    20   11   12 ar
    21   11   17 1
    22   12   13 ar
    23   12   29 1
    24   13   14 ar
    25   13   15 1
    26   14   30 1
    27   15   16 1
    28   16   31 1
    29   16   32 1
    30   16   33 1
    31   17   18 1
    32   18   34 1
    33   18   35 1
    34   18   36 1
    35   19   20 ar
    36   19   37 1
    37   20   21 ar
    38   21   22 ar
    39   21   23 1
    40   23   38 1
    41   23   39 1
@<TRIPOS>MOLECULE
CHEMBL377230
   62    67     0     0     0
SMALL
USER_CHARGES

@<TRIPOS>ATOM
      1 C1         -0.0180    1.3850   -0.0785 C.ar      1 <0>        -0.1156
      2 C2         -1.2027    2.0638   -0.0510 C.ar      1 <0>        -0.0242
      3 C3         -2.4069    1.3577   -0.0342 C.ar      1 <0>        -0.1158
      4 C4         -2.3935   -0.0488   -0.0458 C.ar      1 <0>         0.1251
      5 C5         -1.1738   -0.7209   -0.0739 C.ar      1 <0>        -0.0814
      6 C6          0.0007   -0.0036   -0.0901 C.ar      1 <0>        -0.1259
      7 C7          1.3195   -0.7320   -0.1268 C.3       1 <0>         0.5097
      8 F1          2.3652    0.1973   -0.1440 F         1 <0>        -0.1717
      9 F2          1.4357   -1.5438    1.0066 F         1 <0>        -0.1725
     10 F3          1.3821   -1.5256   -1.2773 F         1 <0>        -0.1728
     11 N1         -3.7016   -0.4618   -0.0240 N.pl3     1 <0>        -0.4819
     12 N2         -4.5396    0.6575    0.0011 N.2       1 <0>        -0.2104
     13 H1         -3.9986   -1.3852   -0.0262 H         1 <0>         0.4521
     14 C8         -3.8198    1.7557   -0.0039 C.2       1 <0>         0.1523
     15 C9         -4.3368    3.1383    0.0172 C.2       1 <0>         0.3687
     16 N3         -5.6613    3.4835    0.0509 N.pl3     1 <0>        -0.5800
     17 H2         -6.4152    2.8733    0.0647 H         1 <0>         0.4308
     18 C10        -5.7230    4.8661    0.0616 C.ar      1 <0>         0.0193
     19 C11        -6.7668    5.7802    0.0925 C.ar      1 <0>        -0.0594
     20 C12        -6.4980    7.1318    0.0951 C.ar      1 <0>        -0.1569
     21 C13        -5.1816    7.5891    0.0665 C.ar      1 <0>         0.2020
     22 C14        -4.1308    6.6922    0.0351 C.ar      1 <0>        -0.1473
     23 C15        -4.3920    5.3180    0.0331 C.ar      1 <0>         0.0999
     24 N4         -3.5962    4.2211    0.0121 N.2       1 <0>        -0.4670
     25 N5         -4.9226    8.9641    0.0691 N.pl3     1 <0>        -0.6354
     26 C16        -3.5449    9.4662    0.1613 C.3       1 <0>         0.1261
     27 C17        -3.2925   10.4300   -1.0024 C.3       1 <0>        -0.1595
     28 C18        -4.3622   11.5245   -0.9943 C.3       1 <0>         0.0276
     29 C19        -5.7431   10.8919   -1.1819 C.3       1 <0>        -0.1594
     30 C20        -6.0228    9.9332   -0.0264 C.3       1 <0>         0.1282
     31 N6         -4.1039   12.4694   -2.0890 N.4       1 <0>        -0.3809
     32 C21        -2.7764   13.0700   -1.9120 C.3       1 <0>        -0.0119
     33 C22        -2.4688   13.9938   -3.0924 C.3       1 <0>        -0.1454
     34 C23        -3.5265   15.0994   -3.1573 C.3       1 <0>        -0.1393
     35 C24        -4.9135   14.4596   -3.2672 C.3       1 <0>        -0.1453
     36 C25        -5.1304   13.5185   -2.0803 C.3       1 <0>        -0.0116
     37 H3          0.9125    1.9330   -0.0960 H         1 <0>         0.1482
     38 H4         -1.2081    3.1438   -0.0418 H         1 <0>         0.1535
     39 H5         -1.1499   -1.8006   -0.0834 H         1 <0>         0.1452
     40 H6         -7.7891    5.4325    0.1140 H         1 <0>         0.1310
     41 H7         -7.3122    7.8410    0.1192 H         1 <0>         0.1337
     42 H8         -3.1123    7.0506    0.0123 H         1 <0>         0.1326
     43 H9         -3.4100    9.9916    1.1067 H         1 <0>         0.0743
     44 H10        -2.8469    8.6311    0.1021 H         1 <0>         0.1057
     45 H11        -2.3074   10.8834   -0.8922 H         1 <0>         0.0983
     46 H12        -3.3386    9.8832   -1.9442 H         1 <0>         0.0921
     47 H13        -4.3320   12.0548   -0.0425 H         1 <0>         0.1370
     48 H14        -6.5021   11.6739   -1.1995 H         1 <0>         0.0981
     49 H15        -5.7661   10.3407   -2.1220 H         1 <0>         0.0917
     50 H16        -6.9592    9.4062   -0.2094 H         1 <0>         0.1028
     51 H17        -6.0944   10.4976    0.9034 H         1 <0>         0.0735
     52 H18        -2.7590   13.6456   -0.9865 H         1 <0>         0.1281
     53 H19        -2.0251   12.2818   -1.8627 H         1 <0>         0.1319
     54 H20        -1.4835   14.4402   -2.9582 H         1 <0>         0.1120
     55 H21        -2.4857   13.4191   -4.0184 H         1 <0>         0.0869
     56 H22        -3.4755   15.7062   -2.2533 H         1 <0>         0.0816
     57 H23        -3.3445   15.7271   -4.0297 H         1 <0>         0.0939
     58 H24        -5.6756   15.2389   -3.2578 H         1 <0>         0.1117
     59 H25        -4.9811   13.8946   -4.1968 H         1 <0>         0.0868
     60 H26        -6.1171   13.0614   -2.1552 H         1 <0>         0.1311
     61 H27        -5.0629   14.0845   -1.1512 H         1 <0>         0.1281
     62 H28        -4.1339   11.9782   -2.9699 H         1 <0>         0.4199
@<TRIPOS>BOND
     1    1    6 ar
     2    1   37 1
     3    1    2 ar
     4    2   38 1
     5    2    3 ar
     6    3    4 ar
     7    3   14 1
     8    4   11 1
     9    4    5 ar
    10    5   39 1
    11    5    6 ar
    12    6    7 1
    13    7    8 1
    14    7    9 1
    15    7   10 1
    16   11   12 1
    17   11   13 1
    18   12   14 2
    19   14   15 1
    20   15   24 2
    21   15   16 1
    22   16   17 1
    23   16   18 1
    24   18   23 ar
    25   18   19 ar
    26   19   20 ar
    27   19   40 1
    28   20   21 ar
    29   20   41 1
    30   21   22 ar
    31   21   25 1
    32   22   23 ar
    33   22   42 1
    34   23   24 1
    35   25   30 1
    36   25   26 1
    37   26   27 1
    38   26   43 1
    39   26   44 1
    40   27   28 1
    41   27   45 1
    42   27   46 1
    43   28   29 1
    44   28   31 1
    45   28   47 1
    46   29   30 1
    47   29   48 1
    48   29   49 1
    49   30   50 1
    50   30   51 1
    51   31   36 1
    52   31   32 1
    53   31   62 1
    54   32   33 1
    55   32   52 1
    56   32   53 1
    57   33   34 1
    58   33   54 1
    59   33   55 1
    60   34   35 1
    61   34   56 1
    62   34   57 1
    63   35   36 1
    64   35   58 1
    65   35   59 1
    66   36   60 1
    67   36   61 1
@<TRIPOS>MOLECULE
CHEMBL377230__1
   62    67     0     0     0
SMALL
USER_CHARGES

@<TRIPOS>ATOM
      1 C1         -0.0166    1.3848    0.0100 C.ar      1 <0>        -0.1154
      2 C2         -1.2016    2.0637    0.0232 C.ar      1 <0>        -0.0236
      3 C3         -2.4057    1.3575    0.0439 C.ar      1 <0>        -0.1174
      4 C4         -2.3920   -0.0490    0.0510 C.ar      1 <0>         0.1254
      5 C5         -1.1721   -0.7212    0.0369 C.ar      1 <0>        -0.0830
      6 C6          0.0024   -0.0039    0.0169 C.ar      1 <0>        -0.1251
      7 C7          1.3215   -0.7324   -0.0037 C.3       1 <0>         0.5096
      8 F1          2.3670    0.1969   -0.0280 F         1 <0>        -0.1710
      9 F2          1.4322   -1.5291    1.1409 F         1 <0>        -0.1731
     10 F3          1.3898   -1.5411   -1.1432 F         1 <0>        -0.1729
     11 N1         -3.7001   -0.4619    0.0720 N.pl3     1 <0>        -0.4841
     12 N2         -4.5384    0.6574    0.0783 N.2       1 <0>        -0.2168
     13 H1         -3.9969   -1.3853    0.0807 H         1 <0>         0.4511
     14 C8         -3.8187    1.7556    0.0622 C.2       1 <0>         0.1586
     15 C9         -4.3361    3.1382    0.0625 C.2       1 <0>         0.3456
     16 N3         -3.5964    4.2205    0.0404 N.2       1 <0>        -0.4434
     17 C10        -4.3934    5.3177    0.0473 C.ar      1 <0>         0.0098
     18 C11        -4.1328    6.6923    0.0322 C.ar      1 <0>        -0.0048
     19 C12        -5.1671    7.5830    0.0451 C.ar      1 <0>        -0.1863
     20 C13        -6.4874    7.1369    0.0734 C.ar      1 <0>         0.2336
     21 C14        -6.7666    5.7801    0.0892 C.ar      1 <0>        -0.2015
     22 C15        -5.7244    4.8645    0.0759 C.ar      1 <0>         0.1093
     23 N4         -5.6625    3.4842    0.0798 N.pl3     1 <0>        -0.5860
     24 N5         -7.5346    8.0630    0.0863 N.pl3     1 <0>        -0.6320
     25 C16        -8.9310    7.6153   -0.0059 C.3       1 <0>         0.1254
     26 C17        -9.7171    8.2071    1.1682 C.3       1 <0>        -0.1597
     27 C18        -9.5439    9.7276    1.1782 C.3       1 <0>         0.0275
     28 C19        -8.0646   10.0730    1.3643 C.3       1 <0>        -0.1596
     29 C20        -7.2601    9.5020    0.1985 C.3       1 <0>         0.1262
     30 N6        -10.3232   10.3017    2.2831 N.4       1 <0>        -0.3809
     31 C21       -11.7408    9.9636    2.1075 C.3       1 <0>        -0.0117
     32 C22       -12.5458   10.4899    3.2976 C.3       1 <0>        -0.1454
     33 C23       -12.3887   12.0109    3.3807 C.3       1 <0>        -0.1393
     34 C24       -10.9004   12.3553    3.4889 C.3       1 <0>        -0.1454
     35 C25       -10.1563   11.7600    2.2917 C.3       1 <0>        -0.0116
     36 H2          0.9139    1.9327   -0.0105 H         1 <0>         0.1489
     37 H3         -1.2071    3.1436    0.0180 H         1 <0>         0.1542
     38 H4         -1.1480   -1.8009    0.0426 H         1 <0>         0.1446
     39 H5         -3.1135    7.0485    0.0106 H         1 <0>         0.1393
     40 H6         -4.9605    8.6430    0.0337 H         1 <0>         0.1337
     41 H7         -7.7904    5.4368    0.1119 H         1 <0>         0.1251
     42 H8         -9.3636    7.9590   -0.9455 H         1 <0>         0.0756
     43 H9         -8.9696    6.5269    0.0400 H         1 <0>         0.1029
     44 H10       -10.7736    7.9620    1.0591 H         1 <0>         0.0982
     45 H11        -9.3415    7.7920    2.1035 H         1 <0>         0.0919
     46 H12        -9.8968   10.1395    0.2327 H         1 <0>         0.1374
     47 H13        -7.9449   11.1560    1.3947 H         1 <0>         0.0998
     48 H14        -7.7046    9.6404    2.2977 H         1 <0>         0.0923
     49 H15        -6.1965    9.6580    0.3793 H         1 <0>         0.1062
     50 H16        -7.5534   10.0029   -0.7241 H         1 <0>         0.0753
     51 H17       -12.1113   10.4189    1.1890 H         1 <0>         0.1283
     52 H18       -11.8506    8.8810    2.0453 H         1 <0>         0.1309
     53 H19       -13.5983   10.2394    3.1644 H         1 <0>         0.1119
     54 H20       -12.1763   10.0350    4.2167 H         1 <0>         0.0869
     55 H21       -12.8047   12.4699    2.4838 H         1 <0>         0.0818
     56 H22       -12.9141   12.3842    4.2598 H         1 <0>         0.0942
     57 H23       -10.7768   13.4383    3.4925 H         1 <0>         0.1123
     58 H24       -10.4967   11.9392    4.4120 H         1 <0>         0.0870
     59 H25        -9.0965   12.0035    2.3655 H         1 <0>         0.1317
     60 H26       -10.5606   12.1769    1.3693 H         1 <0>         0.1283
     61 H27        -9.9948    9.9215    3.1582 H         1 <0>         0.4201
     62 H28        -6.4165    2.8741    0.0942 H         1 <0>         0.4291
@<TRIPOS>BOND
     1    1    6 ar
     2    1   36 1
     3    1    2 ar
     4    2   37 1
     5    2    3 ar
     6    3    4 ar
     7    3   14 1
     8    4   11 1
     9    4    5 ar
    10    5   38 1
    11    5    6 ar
    12    6    7 1
    13    7    8 1
    14    7    9 1
    15    7   10 1
    16   11   12 1
    17   11   13 1
    18   12   14 2
    19   14   15 1
    20   15   23 1
    21   15   16 2
    22   16   17 1
    23   17   22 ar
    24   17   18 ar
    25   18   19 ar
    26   18   39 1
    27   19   20 ar
    28   19   40 1
    29   20   21 ar
    30   20   24 1
    31   21   22 ar
    32   21   41 1
    33   22   23 1
    34   23   62 1
    35   24   29 1
    36   24   25 1
    37   25   26 1
    38   25   42 1
    39   25   43 1
    40   26   27 1
    41   26   44 1
    42   26   45 1
    43   27   28 1
    44   27   30 1
    45   27   46 1
    46   28   29 1
    47   28   47 1
    48   28   48 1
    49   29   49 1
    50   29   50 1
    51   30   35 1
    52   30   31 1
    53   30   61 1
    54   31   32 1
    55   31   51 1
    56   31   52 1
    57   32   33 1
    58   32   53 1
    59   32   54 1
    60   33   34 1
    61   33   55 1
    62   33   56 1
    63   34   35 1
    64   34   57 1
    65   34   58 1
    66   35   59 1
    67   35   60 1
