@<TRIPOS>MOLECULE
3C4F-C4F
 32 34 0 0 0
SMALL
SF_CHARGES


@<TRIPOS>ATOM
1    C         5.4000    2.0210   12.8800  C.3        1 SUBUNIT      0.1700
2    O         6.2850    2.5130   13.8960  O.3        1 SUBUNIT     -0.3838
3    C         5.8310    3.4370   14.8170  C.2        1 SUBUNIT      0.1539
4    C         4.6520    4.1380   14.6250  C.2        1 SUBUNIT     -0.1158
5    C         4.2060    5.0210   15.5990  C.2        1 SUBUNIT     -0.1029
6    C         4.9500    5.2000   16.7580  C.2        1 SUBUNIT     -0.1065
7    C         6.5540    3.6050   15.9860  C.2        1 SUBUNIT     -0.1207
8    C         6.1250    4.4960   16.9510  C.2        1 SUBUNIT     -0.0410
9    C         6.9400    4.6490   18.2150  C.3        1 SUBUNIT     -0.0007
10   C         6.5410    3.5140   19.1600  C.2        1 SUBUNIT     -0.0546
11   C         7.0870    3.2210   20.5030  C.2        1 SUBUNIT     -0.0450
12   C         5.6180    2.5630   18.9920  C.2        1 SUBUNIT     -0.0084
13   N         5.5370    1.7580   19.9970  N.pl3      1 SUBUNIT     -0.3311
14   C         6.4020    2.1390   20.9460  C.2        1 SUBUNIT      0.3584
15   N         6.6240    1.5970   22.1430  N.2        1 SUBUNIT     -0.5202
16   C         7.5770    2.1380   22.9120  C.2        1 SUBUNIT      0.1650
17   C         8.3000    3.2620   22.4950  C.2        1 SUBUNIT     -0.1304
18   C         8.0430    3.8480   21.2630  C.2        1 SUBUNIT     -0.1177
19   H         4.5321    1.5220   13.3236  H          1 SUBUNIT      0.0246
20   H         5.9087    1.2992   12.2324  H          1 SUBUNIT      0.0246
21   H         5.0329    2.8380   12.2501  H          1 SUBUNIT      0.0246
22   H         4.0837    3.9976   13.7222  H          1 SUBUNIT      0.0996
23   H         3.2881    5.5641   15.4564  H          1 SUBUNIT      0.0997
24   H         4.6122    5.8899   17.5115  H          1 SUBUNIT      0.0999
25   H         7.4552    3.0390   16.1448  H          1 SUBUNIT      0.1004
26   H         8.0072    4.5841   17.9787  H          1 SUBUNIT      0.0352
27   H         6.7267    5.6175   18.6792  H          1 SUBUNIT      0.0352
28   H         4.9991    2.4645   18.1173  H          1 SUBUNIT      0.0909
29   H         4.8201    1.0584   20.1097  H          1 SUBUNIT      0.3095
30   H         7.7743    1.6826   23.8667  H          1 SUBUNIT      0.0766
31   H         9.0616    3.6781   23.1311  H          1 SUBUNIT      0.1051
32   H         8.5542    4.7315   20.9226  H          1 SUBUNIT      0.1057
@<TRIPOS>BOND
     1    1    2 1
     2    2    3 1
     3    3    4 2
     4    3    7 1
     5    4    5 1
     6    5    6 2
     7    6    8 1
     8    7    8 2
     9    8    9 1
    10    9   10 1
    11   10   11 1
    12   10   12 2
    13   11   14 1
    14   11   18 2
    15   12   13 1
    16   13   14 1
    17   14   15 2
    18   15   16 1
    19   16   17 2
    20   17   18 1
    21    1   19 1
    22    1   20 1
    23    1   21 1
    24    4   22 1
    25    5   23 1
    26    6   24 1
    27    7   25 1
    28    9   26 1
    29    9   27 1
    30   12   28 1
    31   13   29 1
    32   16   30 1
    33   17   31 1
    34   18   32 1
