@<TRIPOS>MOLECULE
1E66-HUX
 40 43 0 0 0
SMALL
SF_CHARGES


@<TRIPOS>ATOM
1    Cl        7.5600   70.9960   69.9590  Cl         1 SUBUNIT     -0.0832
2    C         6.3780   70.6350   68.8450  C.2        1 SUBUNIT      0.0206
3    N         5.9600   69.5810   65.3090  N.2        1 SUBUNIT     -0.5064
4    C         5.5690   69.9500   66.6660  C.2        1 SUBUNIT      0.2639
5    C         4.9750   69.1980   64.4700  C.2        1 SUBUNIT      0.2362
6    N         1.8860   69.4300   66.4690  N.pl3      1 SUBUNIT     -0.6561
7    C         3.2280   69.5120   66.1460  C.2        1 SUBUNIT      0.1107
8    C         6.6700   70.2770   67.4340  C.2        1 SUBUNIT     -0.1350
9    C         4.9340   70.6300   69.2740  C.2        1 SUBUNIT     -0.1122
10   C         4.2480   69.9120   67.0430  C.2        1 SUBUNIT     -0.0469
11   C         5.5190   68.7840   62.9970  C.3        1 SUBUNIT     -0.0614
12   C         3.6230   69.1100   64.7520  C.2        1 SUBUNIT     -0.0789
13   C         4.5270   67.8800   62.2460  C.3        1 SUBUNIT     -0.0091
14   C         4.2820   66.4050   62.9960  C.2        1 SUBUNIT     -0.1243
15   C         3.1710   68.5550   62.2170  C.3        1 SUBUNIT     -0.0787
16   C         3.3050   66.0890   63.8490  C.2        1 SUBUNIT     -0.0562
17   C         2.3030   67.1800   64.1500  C.3        1 SUBUNIT     -0.0562
18   C         3.2790   64.6360   64.4660  C.3        1 SUBUNIT     -0.0504
19   C         2.6210   68.6020   63.7090  C.3        1 SUBUNIT     -0.0050
20   C         4.3940   63.6190   64.1310  C.3        1 SUBUNIT     -0.1134
21   C         3.9130   70.3030   68.4610  C.2        1 SUBUNIT     -0.1184
22   H         1.2174   69.1362   65.7742  H          1 SUBUNIT      0.3186
23   H         1.5763   69.6640   67.3993  H          1 SUBUNIT      0.3186
24   H         7.6567   70.2623   67.0051  H          1 SUBUNIT      0.1021
25   H         4.6414   70.8939   70.2753  H          1 SUBUNIT      0.1027
26   H         5.6761   69.6871   62.3981  H          1 SUBUNIT      0.0413
27   H         6.4651   68.2417   63.0957  H          1 SUBUNIT      0.0413
28   H         4.9497   67.7726   61.2416  H          1 SUBUNIT      0.0415
29   H         4.9112   65.5434   62.8558  H          1 SUBUNIT      0.0915
30   H         3.2794   69.5684   61.8167  H          1 SUBUNIT      0.0484
31   H         2.4937   67.9798   61.5771  H          1 SUBUNIT      0.0484
32   H         1.3622   66.8933   63.6686  H          1 SUBUNIT      0.0473
33   H         2.1666   67.1996   65.2363  H          1 SUBUNIT      0.0473
34   H         3.2857   64.7513   65.5549  H          1 SUBUNIT      0.0484
35   H         2.3372   64.1731   64.1533  H          1 SUBUNIT      0.0484
36   H         1.7605   69.2792   63.6987  H          1 SUBUNIT      0.0457
37   H         4.4352   63.4223   63.0546  H          1 SUBUNIT      0.0534
38   H         4.2216   62.6655   64.6410  H          1 SUBUNIT      0.0534
39   H         5.3743   63.9947   64.4423  H          1 SUBUNIT      0.0534
40   H         2.9153   70.3372   68.8626  H          1 SUBUNIT      0.1092
@<TRIPOS>BOND
     1    1    2 1
     2    2    8 2
     3    2    9 1
     4    3    4 1
     5    3    5 2
     6    4    8 1
     7    4   10 2
     8    5   11 1
     9    5   12 1
    10    6    7 1
    11    7   10 1
    12    7   12 2
    13    9   21 2
    14   10   21 1
    15   11   13 1
    16   12   19 1
    17   13   14 1
    18   13   15 1
    19   14   16 2
    20   15   19 1
    21   16   17 1
    22   16   18 1
    23   17   19 1
    24   18   20 1
    25    6   22 1
    26    6   23 1
    27    8   24 1
    28    9   25 1
    29   11   26 1
    30   11   27 1
    31   13   28 1
    32   14   29 1
    33   15   30 1
    34   15   31 1
    35   17   32 1
    36   17   33 1
    37   18   34 1
    38   18   35 1
    39   19   36 1
    40   20   37 1
    41   20   38 1
    42   20   39 1
    43   21   40 1
