@<TRIPOS>MOLECULE
CHEMBL182342
   65    70     0     0     0
SMALL
USER_CHARGES

@<TRIPOS>ATOM
      1 C1          0.0096    1.3510    0.3363 C.ar      1 <0>        -0.0966
      2 C2          1.1965    2.0541    0.3269 C.ar      1 <0>        -0.1020
      3 C3          2.3777    1.4187   -0.0131 C.ar      1 <0>        -0.1296
      4 C4          2.3771    0.0757   -0.3459 C.ar      1 <0>        -0.1084
      5 C5          1.1970   -0.6387   -0.3408 C.ar      1 <0>        -0.0961
      6 C6          0.0021   -0.0041    0.0020 C.ar      1 <0>        -0.0296
      7 C7         -1.2668   -0.7642    0.0105 C.ar      1 <0>        -0.0158
      8 C8         -2.1893   -0.5984   -1.0408 C.ar      1 <0>        -0.0190
      9 C9         -1.9203    0.2829   -2.1017 C.ar      1 <0>        -0.1362
     10 C10        -2.8296    0.4279   -3.1098 C.ar      1 <0>         0.1193
     11 C11        -4.0302   -0.2894   -3.1044 C.ar      1 <0>        -0.1331
     12 C12        -4.3220   -1.1507   -2.0930 C.ar      1 <0>        -0.0790
     13 C13        -3.4077   -1.3239   -1.0389 C.ar      1 <0>        -0.0409
     14 C14        -3.6792   -2.2055    0.0202 C.ar      1 <0>        -0.0454
     15 C15        -2.7694   -2.3537    1.0336 C.ar      1 <0>        -0.1055
     16 C16        -1.5437   -1.6563    1.0699 C.ar      1 <0>        -0.0401
     17 C17        -0.6779   -1.9419    2.2360 C.ar      1 <0>        -0.0909
     18 C18         0.5877   -1.3800    2.5145 C.ar      1 <0>        -0.0656
     19 C19         1.2814   -1.7405    3.6407 C.ar      1 <0>        -0.1465
     20 C20         0.7621   -2.6666    4.5402 C.ar      1 <0>         0.1414
     21 C21        -0.4789   -3.2334    4.2911 C.ar      1 <0>        -0.1061
     22 C22        -1.1785   -2.8726    3.1585 C.ar      1 <0>        -0.0790
     23 S1         -2.7579   -3.3480    2.5047 S.3       1 <0>         0.0553
     24 O1          1.4639   -3.0124    5.6512 O.3       1 <0>        -0.4907
     25 O2         -2.5644    1.2820   -4.1332 O.3       1 <0>        -0.4987
     26 C23         3.6706    2.1930   -0.0213 C.3       1 <0>         0.1596
     27 C24         3.9567    2.6929   -1.4387 C.3       1 <0>        -0.1801
     28 C25         5.2014    3.5826   -1.4242 C.3       1 <0>        -0.0077
     29 N1          5.4761    4.0625   -2.7852 N.4       1 <0>        -0.3828
     30 C26         5.8134    2.9223   -3.6458 C.3       1 <0>        -0.0119
     31 C27         6.0212    3.4066   -5.0823 C.3       1 <0>        -0.1459
     32 C28         7.1639    4.4257   -5.1114 C.3       1 <0>        -0.1396
     33 C29         6.8348    5.5744   -4.1536 C.3       1 <0>        -0.1465
     34 C30         6.5968    5.0098   -2.7514 C.3       1 <0>        -0.0068
     35 O3          4.7368    1.3444    0.4088 O.3       1 <0>        -0.5483
     36 H1         -0.9111    1.8470    0.6061 H         1 <0>         0.1312
     37 H2          1.2037    3.1027    0.5850 H         1 <0>         0.1293
     38 H3          3.3024   -0.4142   -0.6107 H         1 <0>         0.1245
     39 H4          1.1977   -1.6868   -0.6015 H         1 <0>         0.1301
     40 H5         -0.9976    0.8439   -2.1194 H         1 <0>         0.1311
     41 H6         -4.7341   -0.1577   -3.9128 H         1 <0>         0.1370
     42 H7         -5.2524   -1.6990   -2.0993 H         1 <0>         0.1413
     43 H8         -4.6029   -2.7648    0.0358 H         1 <0>         0.1451
     44 H9          1.0137   -0.6588    1.8327 H         1 <0>         0.1366
     45 H10         2.2478   -1.2984    3.8330 H         1 <0>         0.1353
     46 H11        -0.8951   -3.9535    4.9799 H         1 <0>         0.1435
     47 H12         1.2786   -2.4585    6.4218 H         1 <0>         0.3989
     48 H13        -2.0978    0.8738   -4.8753 H         1 <0>         0.3925
     49 H14         3.5886    3.0443    0.6546 H         1 <0>         0.1188
     50 H15         4.1266    1.8410   -2.0971 H         1 <0>         0.0926
     51 H16         3.1038    3.2673   -1.8005 H         1 <0>         0.0998
     52 H17         5.0314    4.4345   -0.7659 H         1 <0>         0.1326
     53 H18         6.0542    3.0082   -1.0625 H         1 <0>         0.1365
     54 H19         6.7289    2.4536   -3.2848 H         1 <0>         0.1289
     55 H20         5.0006    2.1964   -3.6215 H         1 <0>         0.1289
     56 H21         6.2733    2.5588   -5.7194 H         1 <0>         0.1116
     57 H22         5.1062    3.8753   -5.4444 H         1 <0>         0.0871
     58 H23         8.0901    3.9439   -4.7981 H         1 <0>         0.0819
     59 H24         7.2787    4.8159   -6.1227 H         1 <0>         0.0943
     60 H25         7.6684    6.2761   -4.1268 H         1 <0>         0.1124
     61 H26         5.9366    6.0881   -4.4964 H         1 <0>         0.0873
     62 H27         6.3624    5.8250   -2.0669 H         1 <0>         0.1302
     63 H28         7.4956    4.4966   -2.4095 H         1 <0>         0.1287
     64 H29         4.8677    0.5645   -0.1478 H         1 <0>         0.3794
     65 H30         4.6567    4.5253   -3.1493 H         1 <0>         0.4214
@<TRIPOS>BOND
     1    1    6 ar
     2    1    2 ar
     3    1   36 1
     4    2    3 ar
     5    2   37 1
     6    3    4 ar
     7    3   26 1
     8    4    5 ar
     9    4   38 1
    10    5    6 ar
    11    5   39 1
    12    6    7 1
    13    7   16 ar
    14    7    8 ar
    15    8   13 ar
    16    8    9 ar
    17    9   10 ar
    18    9   40 1
    19   10   11 ar
    20   10   25 1
    21   11   12 ar
    22   11   41 1
    23   12   13 ar
    24   12   42 1
    25   13   14 ar
    26   14   15 ar
    27   14   43 1
    28   15   23 1
    29   15   16 ar
    30   16   17 1
    31   17   22 ar
    32   17   18 ar
    33   18   19 ar
    34   18   44 1
    35   19   20 ar
    36   19   45 1
    37   20   21 ar
    38   20   24 1
    39   21   22 ar
    40   21   46 1
    41   22   23 1
    42   24   47 1
    43   25   48 1
    44   26   27 1
    45   26   35 1
    46   26   49 1
    47   27   28 1
    48   27   50 1
    49   27   51 1
    50   28   29 1
    51   28   52 1
    52   28   53 1
    53   29   34 1
    54   29   30 1
    55   29   65 1
    56   30   31 1
    57   30   54 1
    58   30   55 1
    59   31   32 1
    60   31   56 1
    61   31   57 1
    62   32   33 1
    63   32   58 1
    64   32   59 1
    65   33   34 1
    66   33   60 1
    67   33   61 1
    68   34   62 1
    69   34   63 1
    70   35   64 1
@<TRIPOS>MOLECULE
CHEMBL182342__1
   65    70     0     0     0
SMALL
USER_CHARGES

@<TRIPOS>ATOM
      1 C1          0.0096    1.3510    0.3363 C.ar      1 <0>        -0.0965
      2 C2          1.1965    2.0541    0.3269 C.ar      1 <0>        -0.1010
      3 C3          2.3777    1.4187   -0.0131 C.ar      1 <0>        -0.1294
      4 C4          2.3771    0.0757   -0.3459 C.ar      1 <0>        -0.1083
      5 C5          1.1970   -0.6387   -0.3408 C.ar      1 <0>        -0.0959
      6 C6          0.0021   -0.0041    0.0020 C.ar      1 <0>        -0.0305
      7 C7         -1.2668   -0.7642    0.0105 C.ar      1 <0>        -0.0114
      8 C8         -2.1893   -0.5984   -1.0408 C.ar      1 <0>        -0.0191
      9 C9         -1.9203    0.2829   -2.1017 C.ar      1 <0>        -0.1374
     10 C10        -2.8296    0.4279   -3.1098 C.ar      1 <0>         0.1232
     11 C11        -4.0302   -0.2894   -3.1044 C.ar      1 <0>        -0.1297
     12 C12        -4.3220   -1.1507   -2.0930 C.ar      1 <0>        -0.0816
     13 C13        -3.4077   -1.3239   -1.0389 C.ar      1 <0>        -0.0397
     14 C14        -3.6792   -2.2055    0.0202 C.ar      1 <0>        -0.0441
     15 C15        -2.7694   -2.3537    1.0336 C.ar      1 <0>        -0.1070
     16 C16        -1.5437   -1.6563    1.0699 C.ar      1 <0>        -0.0467
     17 C17        -0.6779   -1.9419    2.2360 C.ar      1 <0>        -0.0842
     18 C18         0.5877   -1.3800    2.5145 C.ar      1 <0>        -0.0682
     19 C19         1.2814   -1.7405    3.6407 C.ar      1 <0>        -0.1503
     20 C20         0.7621   -2.6666    4.5402 C.ar      1 <0>         0.1366
     21 C21        -0.4789   -3.2334    4.2911 C.ar      1 <0>        -0.1045
     22 C22        -1.1785   -2.8726    3.1585 C.ar      1 <0>        -0.0789
     23 S1         -2.7579   -3.3480    2.5047 S.3       1 <0>         0.0565
     24 O1          1.4639   -3.0124    5.6512 O.3       1 <0>        -0.4915
     25 O2         -2.5644    1.2820   -4.1332 O.3       1 <0>        -0.4978
     26 C23         3.6706    2.1930   -0.0213 C.3       1 <0>         0.1599
     27 C24         4.4422    1.9110    1.2695 C.3       1 <0>        -0.1812
     28 C25         5.6931    2.7906    1.3185 C.3       1 <0>        -0.0076
     29 N1          6.4339    2.5198    2.5577 N.4       1 <0>        -0.3827
     30 C26         5.6199    2.9232    3.7107 C.3       1 <0>        -0.0129
     31 C27         6.3529    2.5689    5.0063 C.3       1 <0>        -0.1458
     32 C28         7.6953    3.3050    5.0446 C.3       1 <0>        -0.1396
     33 C29         8.5055    2.9338    3.7992 C.3       1 <0>        -0.1465
     34 C30         7.6928    3.2746    2.5483 C.3       1 <0>        -0.0067
     35 O3          4.4584    1.7928   -1.1443 O.3       1 <0>        -0.5484
     36 H1         -0.9111    1.8470    0.6061 H         1 <0>         0.1313
     37 H2          1.2037    3.1027    0.5850 H         1 <0>         0.1296
     38 H3          3.3024   -0.4142   -0.6107 H         1 <0>         0.1245
     39 H4          1.1977   -1.6868   -0.6015 H         1 <0>         0.1302
     40 H5         -0.9976    0.8439   -2.1194 H         1 <0>         0.1335
     41 H6         -4.7341   -0.1577   -3.9128 H         1 <0>         0.1381
     42 H7         -5.2524   -1.6990   -2.0993 H         1 <0>         0.1416
     43 H8         -4.6029   -2.7648    0.0358 H         1 <0>         0.1452
     44 H9          1.0137   -0.6588    1.8327 H         1 <0>         0.1369
     45 H10         2.2478   -1.2984    3.8330 H         1 <0>         0.1289
     46 H11        -0.8951   -3.9535    4.9799 H         1 <0>         0.1434
     47 H12         1.2786   -2.4585    6.4218 H         1 <0>         0.3969
     48 H13        -2.0978    0.8738   -4.8753 H         1 <0>         0.3955
     49 H14         3.4551    3.2593   -0.0901 H         1 <0>         0.1181
     50 H15         3.8080    2.1330    2.1278 H         1 <0>         0.0998
     51 H16         4.7349    0.8614    1.2958 H         1 <0>         0.0928
     52 H17         6.3272    2.5686    0.4602 H         1 <0>         0.1381
     53 H18         5.4004    3.8403    1.2921 H         1 <0>         0.1310
     54 H19         5.4468    3.9987    3.6742 H         1 <0>         0.1288
     55 H20         4.6637    2.4009    3.6803 H         1 <0>         0.1296
     56 H21         5.7478    2.8707    5.8611 H         1 <0>         0.1116
     57 H22         6.5264    1.4934    5.0439 H         1 <0>         0.0872
     58 H23         7.5207    4.3808    5.0586 H         1 <0>         0.0818
     59 H24         8.2461    3.0122    5.9384 H         1 <0>         0.0943
     60 H25         9.4390    3.4965    3.7913 H         1 <0>         0.1125
     61 H26         8.7237    1.8659    3.8118 H         1 <0>         0.0873
     62 H27         8.2668    3.0118    1.6598 H         1 <0>         0.1305
     63 H28         7.4754    4.3427    2.5366 H         1 <0>         0.1284
     64 H29         4.6883    0.8536   -1.1488 H         1 <0>         0.3801
     65 H30         6.6350    1.5330    2.6193 H         1 <0>         0.4214
@<TRIPOS>BOND
     1    1    6 ar
     2    1    2 ar
     3    1   36 1
     4    2    3 ar
     5    2   37 1
     6    3    4 ar
     7    3   26 1
     8    4    5 ar
     9    4   38 1
    10    5    6 ar
    11    5   39 1
    12    6    7 1
    13    7   16 ar
    14    7    8 ar
    15    8   13 ar
    16    8    9 ar
    17    9   10 ar
    18    9   40 1
    19   10   11 ar
    20   10   25 1
    21   11   12 ar
    22   11   41 1
    23   12   13 ar
    24   12   42 1
    25   13   14 ar
    26   14   15 ar
    27   14   43 1
    28   15   23 1
    29   15   16 ar
    30   16   17 1
    31   17   22 ar
    32   17   18 ar
    33   18   19 ar
    34   18   44 1
    35   19   20 ar
    36   19   45 1
    37   20   21 ar
    38   20   24 1
    39   21   22 ar
    40   21   46 1
    41   22   23 1
    42   24   47 1
    43   25   48 1
    44   26   27 1
    45   26   35 1
    46   26   49 1
    47   27   28 1
    48   27   50 1
    49   27   51 1
    50   28   29 1
    51   28   52 1
    52   28   53 1
    53   29   34 1
    54   29   30 1
    55   29   65 1
    56   30   31 1
    57   30   54 1
    58   30   55 1
    59   31   32 1
    60   31   56 1
    61   31   57 1
    62   32   33 1
    63   32   58 1
    64   32   59 1
    65   33   34 1
    66   33   60 1
    67   33   61 1
    68   34   62 1
    69   34   63 1
    70   35   64 1
@<TRIPOS>MOLECULE
CHEMBL64692
   68    72     0     0     0
SMALL
USER_CHARGES

@<TRIPOS>ATOM
      1 C1          0.1583    1.0180    0.0217 C.ar      1 <0>        -0.0191
      2 C2          1.3135    1.7671    0.0006 C.ar      1 <0>        -0.1527
      3 C3          2.5524    1.1393    0.0579 C.ar      1 <0>         0.1471
      4 C4          2.6306   -0.2463    0.1363 C.ar      1 <0>        -0.2157
      5 C5          1.4801   -1.0026    0.1578 C.ar      1 <0>        -0.0193
      6 C6          0.2326   -0.3753    0.1008 C.ar      1 <0>        -0.1837
      7 C7         -1.0036   -1.1824    0.1242 C.2       1 <0>         0.4609
      8 O1         -2.0885   -0.6327    0.1780 O.2       1 <0>        -0.4292
      9 C8         -0.9245   -2.6467    0.0825 C.2       1 <0>        -0.1878
     10 C9         -0.9279   -3.4397    1.3152 C.ar      1 <0>        -0.0690
     11 C10        -0.9991   -3.0228    2.6582 C.ar      1 <0>        -0.0639
     12 C11        -0.9881   -3.9354    3.6690 C.ar      1 <0>        -0.1334
     13 C12        -0.9062   -5.3005    3.4094 C.ar      1 <0>         0.1307
     14 C13        -0.8348   -5.7434    2.0980 C.ar      1 <0>        -0.0943
     15 C14        -0.8461   -4.8234    1.0712 C.ar      1 <0>        -0.1311
     16 S1         -0.7754   -4.9376   -0.6951 S.3       1 <0>         0.1901
     17 C15        -0.8514   -3.3122   -1.1015 C.2       1 <0>        -0.1433
     18 C16        -0.8393   -2.7153   -2.4852 C.3       1 <0>        -0.0124
     19 C17        -2.1000   -3.1461   -3.2374 C.3       1 <0>        -0.1119
     20 C18        -2.0878   -2.5401   -4.6423 C.3       1 <0>        -0.1127
     21 C19        -0.8507   -3.0295   -5.3980 C.3       1 <0>         0.1024
     22 C20         0.4100   -2.5987   -4.6457 C.3       1 <0>        -0.1503
     23 C21         0.3978   -3.2047   -3.2409 C.3       1 <0>        -0.1095
     24 O2         -0.8393   -2.4635   -6.7101 O.3       1 <0>        -0.5661
     25 O3         -0.8959   -6.1929    4.4348 O.3       1 <0>        -0.4920
     26 O4          3.6887    1.8812    0.0369 O.3       1 <0>        -0.3242
     27 C22         4.9277    1.1721    0.0988 C.3       1 <0>         0.0232
     28 C23         6.0881    2.1687    0.0640 C.3       1 <0>        -0.0010
     29 N1          6.0370    3.0216    1.2590 N.4       1 <0>        -0.3847
     30 C24         7.0517    4.0765    1.1491 C.3       1 <0>        -0.0071
     31 C25         6.9489    5.0157    2.3527 C.3       1 <0>        -0.1468
     32 C26         7.1789    4.2160    3.6384 C.3       1 <0>        -0.1391
     33 C27         6.1620    3.0730    3.7057 C.3       1 <0>        -0.1455
     34 C28         6.2939    2.2057    2.4519 C.3       1 <0>        -0.0134
     35 H1         -0.8039    1.5068   -0.0184 H         1 <0>         0.1477
     36 H2          1.2569    2.8439   -0.0609 H         1 <0>         0.1415
     37 H3          3.5951   -0.7303    0.1799 H         1 <0>         0.1344
     38 H4          1.5418   -2.0791    0.2183 H         1 <0>         0.1374
     39 H5         -1.0627   -1.9697    2.8889 H         1 <0>         0.1257
     40 H6         -1.0436   -3.5934    4.6919 H         1 <0>         0.1374
     41 H7         -0.7709   -6.7997    1.8824 H         1 <0>         0.1425
     42 H8         -0.8137   -1.6281   -2.4117 H         1 <0>         0.0887
     43 H9         -2.1257   -4.2333   -3.3109 H         1 <0>         0.0742
     44 H10        -2.9813   -2.7974   -2.6990 H         1 <0>         0.0784
     45 H11        -2.9859   -2.8470   -5.1782 H         1 <0>         0.0788
     46 H12        -2.0621   -1.4529   -4.5688 H         1 <0>         0.0719
     47 H13        -0.8764   -4.1167   -5.4715 H         1 <0>         0.0584
     48 H14         1.2913   -2.9474   -5.1841 H         1 <0>         0.0711
     49 H15         0.4356   -1.5115   -4.5723 H         1 <0>         0.0719
     50 H16         1.2959   -2.8978   -2.7050 H         1 <0>         0.0702
     51 H17         0.3721   -4.2919   -3.3144 H         1 <0>         0.0734
     52 H18        -0.0811   -2.7312   -7.2473 H         1 <0>         0.3796
     53 H19        -1.7745   -6.4979    4.6996 H         1 <0>         0.3990
     54 H20         4.9710    0.5962    1.0233 H         1 <0>         0.0890
     55 H21         5.0029    0.4970   -0.7537 H         1 <0>         0.1121
     56 H22         7.0330    1.6257    0.0453 H         1 <0>         0.1503
     57 H23         6.0077    2.7889   -0.8287 H         1 <0>         0.1435
     58 H24         8.0435    3.6250    1.1248 H         1 <0>         0.1295
     59 H25         6.8886    4.6427    0.2320 H         1 <0>         0.1314
     60 H26         7.7042    5.7972    2.2702 H         1 <0>         0.1134
     61 H27         5.9575    5.4680    2.3779 H         1 <0>         0.0881
     62 H28         8.1888    3.8059    3.6368 H         1 <0>         0.0823
     63 H29         7.0508    4.8691    4.5017 H         1 <0>         0.0950
     64 H30         6.3549    2.4658    4.5901 H         1 <0>         0.1126
     65 H31         5.1543    3.4849    3.7589 H         1 <0>         0.0879
     66 H32         5.5715    1.3908    2.4966 H         1 <0>         0.1269
     67 H33         7.3019    1.7941    2.3998 H         1 <0>         0.1308
     68 H34         5.1231    3.4430    1.3314 H         1 <0>         0.4293
@<TRIPOS>BOND
     1    1    6 ar
     2    1    2 ar
     3    1   35 1
     4    2    3 ar
     5    2   36 1
     6    3    4 ar
     7    3   26 1
     8    4    5 ar
     9    4   37 1
    10    5    6 ar
    11    5   38 1
    12    6    7 1
    13    7    8 2
    14    7    9 1
    15    9   17 2
    16    9   10 1
    17   10   15 ar
    18   10   11 ar
    19   11   12 ar
    20   11   39 1
    21   12   13 ar
    22   12   40 1
    23   13   14 ar
    24   13   25 1
    25   14   15 ar
    26   14   41 1
    27   15   16 1
    28   16   17 1
    29   17   18 1
    30   18   23 1
    31   18   19 1
    32   18   42 1
    33   19   20 1
    34   19   43 1
    35   19   44 1
    36   20   21 1
    37   20   45 1
    38   20   46 1
    39   21   22 1
    40   21   24 1
    41   21   47 1
    42   22   23 1
    43   22   48 1
    44   22   49 1
    45   23   50 1
    46   23   51 1
    47   24   52 1
    48   25   53 1
    49   26   27 1
    50   27   28 1
    51   27   54 1
    52   27   55 1
    53   28   29 1
    54   28   56 1
    55   28   57 1
    56   29   34 1
    57   29   30 1
    58   29   68 1
    59   30   31 1
    60   30   58 1
    61   30   59 1
    62   31   32 1
    63   31   60 1
    64   31   61 1
    65   32   33 1
    66   32   62 1
    67   32   63 1
    68   33   34 1
    69   33   64 1
    70   33   65 1
    71   34   66 1
    72   34   67 1
@<TRIPOS>MOLECULE
CHEMBL1082743
   36    38     0     0     0
SMALL
USER_CHARGES

@<TRIPOS>ATOM
      1 C1          1.7118   -1.3977    2.4467 C.3       1 <0>         0.0220
      2 O1          0.9064   -1.4642    1.2682 O.3       1 <0>        -0.3094
      3 C2          1.4723   -2.0169    0.1656 C.ar      1 <0>         0.1694
      4 C3          2.7777   -2.4917    0.2206 C.ar      1 <0>        -0.2221
      5 C4          3.3556   -3.0533   -0.8957 C.ar      1 <0>        -0.0079
      6 C5          2.6276   -3.1461   -2.0856 C.ar      1 <0>        -0.1693
      7 C6          1.3150   -2.6678   -2.1364 C.ar      1 <0>        -0.0193
      8 C7          0.7430   -2.1120   -1.0141 C.ar      1 <0>        -0.1652
      9 C8          3.2427   -3.7463   -3.2837 C.2       1 <0>         0.5100
     10 O2          4.3840   -4.1612   -3.2378 O.2       1 <0>        -0.4875
     11 O3          2.5392   -3.8348   -4.4297 O.3       1 <0>        -0.2895
     12 C9          3.1775   -4.2980   -5.5357 C.ar      1 <0>         0.0940
     13 C10         3.7464   -3.4236   -6.4187 C.ar      1 <0>        -0.1049
     14 C11         4.4043   -3.8827   -7.5561 C.ar      1 <0>        -0.1085
     15 C12         4.5003   -5.2151   -7.8222 C.ar      1 <0>        -0.0880
     16 C13         3.9289   -6.1455   -6.9393 C.ar      1 <0>        -0.0668
     17 C14         3.2629   -5.6840   -5.7775 C.ar      1 <0>        -0.0387
     18 C15         2.6956   -6.6149   -4.8918 C.ar      1 <0>        -0.1097
     19 C16         2.7957   -7.9471   -5.1554 C.ar      1 <0>        -0.0934
     20 C17         3.4542   -8.4064   -6.2931 C.ar      1 <0>        -0.1401
     21 C18         4.0096   -7.5318   -7.1838 C.ar      1 <0>         0.1218
     22 O4          4.6483   -7.9951   -8.2893 O.3       1 <0>        -0.4913
     23 H1          2.0068   -2.4045    2.7424 H         1 <0>         0.0608
     24 H2          2.6025   -0.8026    2.2450 H         1 <0>         0.0609
     25 H3          1.1405   -0.9353    3.2516 H         1 <0>         0.1059
     26 H4          3.3394   -2.4197    1.1402 H         1 <0>         0.1408
     27 H5          4.3701   -3.4213   -0.8523 H         1 <0>         0.1421
     28 H6          0.7491   -2.7376   -3.0536 H         1 <0>         0.1475
     29 H7         -0.2724   -1.7460   -1.0513 H         1 <0>         0.1432
     30 H8          3.6842   -2.3617   -6.2315 H         1 <0>         0.1342
     31 H9          4.8452   -3.1713   -8.2386 H         1 <0>         0.1357
     32 H10         5.0140   -5.5548   -8.7094 H         1 <0>         0.1381
     33 H11         2.1821   -6.2753   -4.0045 H         1 <0>         0.1262
     34 H12         2.3578   -8.6587   -4.4712 H         1 <0>         0.1316
     35 H13         3.5199   -9.4684   -6.4781 H         1 <0>         0.1339
     36 H14         5.5910   -8.1649   -8.1568 H         1 <0>         0.3934
@<TRIPOS>BOND
     1    1    2 1
     2    1   23 1
     3    1   24 1
     4    1   25 1
     5    2    3 1
     6    3    8 ar
     7    3    4 ar
     8    4    5 ar
     9    4   26 1
    10    5    6 ar
    11    5   27 1
    12    6    7 ar
    13    6    9 1
    14    7    8 ar
    15    7   28 1
    16    8   29 1
    17    9   10 2
    18    9   11 1
    19   11   12 1
    20   12   17 ar
    21   12   13 ar
    22   13   14 ar
    23   13   30 1
    24   14   15 ar
    25   14   31 1
    26   15   16 ar
    27   15   32 1
    28   16   21 ar
    29   16   17 ar
    30   17   18 ar
    31   18   19 ar
    32   18   33 1
    33   19   20 ar
    34   19   34 1
    35   20   21 ar
    36   20   35 1
    37   21   22 1
    38   22   36 1
@<TRIPOS>MOLECULE
CHEMBL328475
   71    76     0     0     0
SMALL
USER_CHARGES

@<TRIPOS>ATOM
      1 C1         -0.1936    1.1097   -0.1660 C.ar      1 <0>        -0.0900
      2 C2          0.9878    1.8117   -0.3986 C.ar      1 <0>        -0.1182
      3 C3          2.1855    1.1681   -0.4564 C.ar      1 <0>        -0.0917
      4 C4          2.2355   -0.2252   -0.2791 C.ar      1 <0>        -0.0783
      5 C5          3.4535   -0.9244   -0.3315 C.ar      1 <0>         0.0196
      6 C6          3.4634   -2.2738   -0.1547 C.ar      1 <0>        -0.6746
      7 C7          2.2820   -2.9757    0.0782 C.ar      1 <0>        -0.0472
      8 C8          1.0843   -2.3321    0.1355 C.ar      1 <0>        -0.1128
      9 C9          1.0343   -0.9389   -0.0422 C.ar      1 <0>        -0.0109
     10 C10        -0.1837   -0.2397    0.0103 C.ar      1 <0>        -0.1199
     11 S1          4.9926   -3.1466   -0.2218 S.o2      1 <0>         2.6905
     12 O1          4.6792   -4.4889   -0.5669 O.2       1 <0>        -0.9484
     13 O2          5.8816   -2.3496   -0.9923 O.2       1 <0>        -0.9477
     14 N1          5.6030   -3.1837    1.3171 N.pl3     1 <0>        -0.9908
     15 C11         6.4875   -2.1176    1.8158 C.3       1 <0>         0.1088
     16 C12         5.7678   -1.4083    2.9619 C.3       1 <0>        -0.1048
     17 C13         5.1918   -2.4057    3.9323 C.ar      1 <0>        -0.0425
     18 C14         4.8923   -1.9580    5.2125 C.ar      1 <0>        -0.1459
     19 C15         4.3512   -2.8200    6.1504 C.ar      1 <0>         0.1167
     20 C16         4.1049   -4.1420    5.8081 C.ar      1 <0>        -0.1452
     21 C17         4.4065   -4.5853    4.5380 C.ar      1 <0>        -0.0880
     22 C18         4.9547   -3.7208    3.5993 C.ar      1 <0>        -0.1001
     23 C19         5.2794   -4.2769    2.2399 C.3       1 <0>         0.2438
     24 C20         6.4615   -5.2048    2.3522 C.ar      1 <0>        -0.1155
     25 C21         7.6420   -4.7538    2.9133 C.ar      1 <0>        -0.0580
     26 C22         8.7273   -5.6023    3.0170 C.ar      1 <0>        -0.1426
     27 C23         8.6318   -6.9080    2.5581 C.ar      1 <0>         0.1185
     28 C24         7.4460   -7.3582    1.9959 C.ar      1 <0>        -0.2018
     29 C25         6.3620   -6.5074    1.8992 C.ar      1 <0>        -0.0575
     30 O3          9.6981   -7.7445    2.6585 O.3       1 <0>        -0.3283
     31 C26         9.5278   -9.0749    2.1654 C.3       1 <0>         0.0264
     32 C27        10.8249   -9.8619    2.3627 C.3       1 <0>         0.0039
     33 N2         11.0932  -10.0113    3.7993 N.4       1 <0>        -0.3959
     34 C28        10.0879  -10.9135    4.4170 C.3       1 <0>        -0.0104
     35 C29        10.7971  -11.4068    5.7032 C.3       1 <0>        -0.1447
     36 C30        12.2659  -11.5671    5.2483 C.3       1 <0>        -0.1450
     37 C31        12.4036  -10.6647    4.0081 C.3       1 <0>        -0.0086
     38 O4          4.0627   -2.3738    7.4012 O.3       1 <0>        -0.4995
     39 H1         -1.1304    1.6452   -0.1207 H         1 <0>         0.1307
     40 H2          0.9522    2.8824   -0.5352 H         1 <0>         0.1310
     41 H3          3.0928    1.7250   -0.6381 H         1 <0>         0.1344
     42 H4          4.3768   -0.3938   -0.5114 H         1 <0>         0.1446
     43 H5          2.3176   -4.0464    0.2147 H         1 <0>         0.1364
     44 H6          0.1769   -2.8891    0.3164 H         1 <0>         0.1368
     45 H7         -1.1070   -0.7705    0.1899 H         1 <0>         0.1337
     46 H8          7.4198   -2.5510    2.1779 H         1 <0>         0.0882
     47 H9          6.6964   -1.4073    1.0158 H         1 <0>         0.1058
     48 H10         6.4750   -0.7655    3.4860 H         1 <0>         0.0944
     49 H11         4.9621   -0.7970    2.5555 H         1 <0>         0.0870
     50 H12         5.0830   -0.9287    5.4782 H         1 <0>         0.1309
     51 H13         3.6789   -4.8200    6.5327 H         1 <0>         0.1311
     52 H14         4.2148   -5.6139    4.2706 H         1 <0>         0.1272
     53 H15         4.4201   -4.8297    1.8602 H         1 <0>         0.1123
     54 H16         7.7159   -3.7373    3.2704 H         1 <0>         0.1387
     55 H17         9.6494   -5.2493    3.4547 H         1 <0>         0.1339
     56 H18         7.3692   -8.3743    1.6379 H         1 <0>         0.1299
     57 H19         5.4373   -6.8587    1.4657 H         1 <0>         0.1378
     58 H20         8.7198   -9.5636    2.7099 H         1 <0>         0.0858
     59 H21         9.2817   -9.0402    1.1041 H         1 <0>         0.1093
     60 H22        10.7249  -10.8472    1.9074 H         1 <0>         0.1487
     61 H23        11.6498   -9.3265    1.8928 H         1 <0>         0.1413
     62 H24         9.1794  -10.3647    4.6650 H         1 <0>         0.1334
     63 H25         9.8645  -11.7507    3.7557 H         1 <0>         0.1349
     64 H26        10.7179  -10.6636    6.4965 H         1 <0>         0.0983
     65 H27        10.3870  -12.3634    6.0270 H         1 <0>         0.1172
     66 H28        12.9438  -11.2354    6.0347 H         1 <0>         0.1055
     67 H29        12.4693  -12.6052    4.9853 H         1 <0>         0.1044
     68 H30        12.6610  -11.2673    3.1371 H         1 <0>         0.1314
     69 H31        13.1712   -9.9104    4.1811 H         1 <0>         0.1328
     70 H32         3.1663   -2.0239    7.4970 H         1 <0>         0.3952
     71 H33        11.0779   -9.1098    4.2521 H         1 <0>         0.4336
@<TRIPOS>BOND
     1    1   10 ar
     2    1    2 ar
     3    1   39 1
     4    2    3 ar
     5    2   40 1
     6    3    4 ar
     7    3   41 1
     8    4    9 ar
     9    4    5 ar
    10    5    6 ar
    11    5   42 1
    12    6    7 ar
    13    6   11 1
    14    7    8 ar
    15    7   43 1
    16    8    9 ar
    17    8   44 1
    18    9   10 ar
    19   10   45 1
    20   11   12 2
    21   11   13 2
    22   11   14 1
    23   14   23 1
    24   14   15 1
    25   15   16 1
    26   15   46 1
    27   15   47 1
    28   16   17 1
    29   16   48 1
    30   16   49 1
    31   17   22 ar
    32   17   18 ar
    33   18   19 ar
    34   18   50 1
    35   19   20 ar
    36   19   38 1
    37   20   21 ar
    38   20   51 1
    39   21   22 ar
    40   21   52 1
    41   22   23 1
    42   23   24 1
    43   23   53 1
    44   24   29 ar
    45   24   25 ar
    46   25   26 ar
    47   25   54 1
    48   26   27 ar
    49   26   55 1
    50   27   28 ar
    51   27   30 1
    52   28   29 ar
    53   28   56 1
    54   29   57 1
    55   30   31 1
    56   31   32 1
    57   31   58 1
    58   31   59 1
    59   32   33 1
    60   32   60 1
    61   32   61 1
    62   33   37 1
    63   33   34 1
    64   33   71 1
    65   34   35 1
    66   34   62 1
    67   34   63 1
    68   35   36 1
    69   35   64 1
    70   35   65 1
    71   36   37 1
    72   36   66 1
    73   36   67 1
    74   37   68 1
    75   37   69 1
    76   38   70 1
@<TRIPOS>MOLECULE
CHEMBL328475__1
   71    76     0     0     0
SMALL
USER_CHARGES

@<TRIPOS>ATOM
      1 C1          9.9362  -10.1785   -0.5738 C.ar      1 <0>        -0.0940
      2 C2          8.5742  -10.4579   -0.4757 C.ar      1 <0>        -0.1164
      3 C3          7.6554   -9.4554   -0.4207 C.ar      1 <0>        -0.0974
      4 C4          8.0829   -8.1173   -0.4628 C.ar      1 <0>        -0.0786
      5 C5          7.1640   -7.0554   -0.4079 C.ar      1 <0>         0.0116
      6 C6          7.6148   -5.7720   -0.4507 C.ar      1 <0>        -0.6708
      7 C7          8.9767   -5.4926   -0.5485 C.ar      1 <0>        -0.0494
      8 C8          9.8954   -6.4952   -0.6039 C.ar      1 <0>        -0.1104
      9 C9          9.4678   -7.8333   -0.5622 C.ar      1 <0>        -0.0127
     10 C10        10.3868   -8.8951   -0.6171 C.ar      1 <0>        -0.1141
     11 S1          6.4592   -4.4437   -0.3821 S.o2      1 <0>         2.6832
     12 O1          7.0411   -3.3619   -1.0966 O.2       1 <0>        -0.9504
     13 O2          5.1925   -4.9892   -0.7246 O.2       1 <0>        -0.9364
     14 N1          6.3564   -3.9653    1.1999 N.pl3     1 <0>        -0.9923
     15 C11         7.3030   -2.9913    1.7683 C.3       1 <0>         0.1202
     16 C12         6.5137   -1.7431    2.1600 C.3       1 <0>        -0.1003
     17 C13         5.2771   -2.1124    2.9364 C.ar      1 <0>        -0.0438
     18 C14         4.6912   -1.1261    3.7194 C.ar      1 <0>        -0.1466
     19 C15         3.5472   -1.3955    4.4502 C.ar      1 <0>         0.1176
     20 C16         2.9807   -2.6612    4.3991 C.ar      1 <0>        -0.1459
     21 C17         3.5661   -3.6398    3.6245 C.ar      1 <0>        -0.0862
     22 C18         4.7172   -3.3699    2.8958 C.ar      1 <0>        -0.1037
     23 C19         5.3150   -4.4903    2.0894 C.3       1 <0>         0.2435
     24 C20         4.2361   -5.1455    1.2662 C.ar      1 <0>        -0.1016
     25 C21         3.2719   -4.3701    0.6491 C.ar      1 <0>        -0.0237
     26 C22         2.2816   -4.9683   -0.1056 C.ar      1 <0>        -0.1279
     27 C23         2.2552   -6.3484   -0.2445 C.ar      1 <0>         0.1244
     28 C24         3.2240   -7.1243    0.3754 C.ar      1 <0>        -0.1944
     29 C25         4.2153   -6.5208    1.1248 C.ar      1 <0>        -0.0657
     30 O3          1.2817   -6.9394   -0.9861 O.3       1 <0>        -0.3303
     31 C26         1.3168   -8.3645   -1.0853 C.3       1 <0>         0.0275
     32 C27         0.1515   -8.8442   -1.9531 C.3       1 <0>         0.0035
     33 N2          0.3299   -8.3545   -3.3265 N.4       1 <0>        -0.3957
     34 C28         1.4885   -9.0301   -3.9648 C.3       1 <0>        -0.0107
     35 C29         1.2067   -8.8623   -5.4790 C.3       1 <0>        -0.1450
     36 C30        -0.3282   -9.0256   -5.5652 C.3       1 <0>        -0.1448
     37 C31        -0.8466   -8.7071   -4.1505 C.3       1 <0>        -0.0086
     38 O4          2.9814   -0.4249    5.2149 O.3       1 <0>        -0.4978
     39 H1         10.6448  -10.9927   -0.6115 H         1 <0>         0.1313
     40 H2          8.2430  -11.4854   -0.4431 H         1 <0>         0.1292
     41 H3          6.6032   -9.6870   -0.3456 H         1 <0>         0.1282
     42 H4          6.1056   -7.2568   -0.3324 H         1 <0>         0.1434
     43 H5          9.3080   -4.4652   -0.5811 H         1 <0>         0.1369
     44 H6         10.9476   -6.2637   -0.6799 H         1 <0>         0.1390
     45 H7         11.4451   -8.6937   -0.6928 H         1 <0>         0.1354
     46 H8          7.7837   -3.4154    2.6498 H         1 <0>         0.0841
     47 H9          8.0569   -2.7327    1.0248 H         1 <0>         0.0992
     48 H10         7.1433   -1.0988    2.7737 H         1 <0>         0.0953
     49 H11         6.2232   -1.2049    1.2578 H         1 <0>         0.0887
     50 H12         5.1317   -0.1408    3.7579 H         1 <0>         0.1322
     51 H13         2.0856   -2.8784    4.9631 H         1 <0>         0.1317
     52 H14         3.1257   -4.6251    3.5839 H         1 <0>         0.1277
     53 H15         5.7519   -5.2257    2.7649 H         1 <0>         0.0971
     54 H16         3.2929   -3.2957    0.7575 H         1 <0>         0.1260
     55 H17         1.5283   -4.3622   -0.5869 H         1 <0>         0.1272
     56 H18         3.2056   -8.1988    0.2688 H         1 <0>         0.1225
     57 H19         4.9722   -7.1240    1.6038 H         1 <0>         0.1242
     58 H20         2.2586   -8.6741   -1.5382 H         1 <0>         0.0842
     59 H21         1.2318   -8.8003   -0.0898 H         1 <0>         0.1069
     60 H22         0.1255   -9.9338   -1.9564 H         1 <0>         0.1470
     61 H23        -0.7849   -8.4595   -1.5489 H         1 <0>         0.1407
     62 H24         2.4208   -8.5368   -3.6900 H         1 <0>         0.1342
     63 H25         1.5159  -10.0854   -3.6932 H         1 <0>         0.1342
     64 H26         1.5090   -7.8722   -5.8202 H         1 <0>         0.0986
     65 H27         1.7101   -9.6398   -6.0536 H         1 <0>         0.1168
     66 H28        -0.7435   -8.3227   -6.2874 H         1 <0>         0.1054
     67 H29        -0.5850  -10.0484   -5.8408 H         1 <0>         0.1040
     68 H30        -1.3445   -9.5817   -3.7319 H         1 <0>         0.1310
     69 H31        -1.5385   -7.8657   -4.1893 H         1 <0>         0.1327
     70 H32         2.3204    0.1065    4.7503 H         1 <0>         0.3941
     71 H33         0.4665   -7.3548   -3.3249 H         1 <0>         0.4345
@<TRIPOS>BOND
     1    1   10 ar
     2    1    2 ar
     3    1   39 1
     4    2    3 ar
     5    2   40 1
     6    3    4 ar
     7    3   41 1
     8    4    9 ar
     9    4    5 ar
    10    5    6 ar
    11    5   42 1
    12    6    7 ar
    13    6   11 1
    14    7    8 ar
    15    7   43 1
    16    8    9 ar
    17    8   44 1
    18    9   10 ar
    19   10   45 1
    20   11   12 2
    21   11   13 2
    22   11   14 1
    23   14   23 1
    24   14   15 1
    25   15   16 1
    26   15   46 1
    27   15   47 1
    28   16   17 1
    29   16   48 1
    30   16   49 1
    31   17   22 ar
    32   17   18 ar
    33   18   19 ar
    34   18   50 1
    35   19   20 ar
    36   19   38 1
    37   20   21 ar
    38   20   51 1
    39   21   22 ar
    40   21   52 1
    41   22   23 1
    42   23   24 1
    43   23   53 1
    44   24   29 ar
    45   24   25 ar
    46   25   26 ar
    47   25   54 1
    48   26   27 ar
    49   26   55 1
    50   27   28 ar
    51   27   30 1
    52   28   29 ar
    53   28   56 1
    54   29   57 1
    55   30   31 1
    56   31   32 1
    57   31   58 1
    58   31   59 1
    59   32   33 1
    60   32   60 1
    61   32   61 1
    62   33   37 1
    63   33   34 1
    64   33   71 1
    65   34   35 1
    66   34   62 1
    67   34   63 1
    68   35   36 1
    69   35   64 1
    70   35   65 1
    71   36   37 1
    72   36   66 1
    73   36   67 1
    74   37   68 1
    75   37   69 1
    76   38   70 1
@<TRIPOS>MOLECULE
CHEMBL371072
   56    60     0     0     0
SMALL
USER_CHARGES

@<TRIPOS>ATOM
      1 C1          0.8656   -0.3580   -0.9926 C.3       1 <0>        -0.0543
      2 N1         -0.0118   -0.0050    0.1314 N.4       1 <0>        -0.3892
      3 C2         -0.0444    1.4554    0.2873 C.3       1 <0>        -0.0475
      4 C3         -1.3695   -0.4996   -0.1331 C.3       1 <0>        -0.0014
      5 C4         -1.3621   -2.0295   -0.1432 C.3       1 <0>         0.0239
      6 O1         -1.0224   -2.5127    1.1580 O.3       1 <0>        -0.3275
      7 C5         -0.9712   -3.8609    1.3216 C.ar      1 <0>         0.1231
      8 C6         -1.2368   -4.7013    0.2502 C.ar      1 <0>        -0.2012
      9 C7         -1.1837   -6.0714    0.4189 C.ar      1 <0>        -0.0553
     10 C8         -0.8666   -6.6053    1.6543 C.ar      1 <0>        -0.1345
     11 C9         -0.6019   -5.7698    2.7238 C.ar      1 <0>        -0.0630
     12 C10        -0.6477   -4.3990    2.5587 C.ar      1 <0>        -0.1387
     13 C11        -0.8098   -8.1002    1.8357 C.3       1 <0>         0.1470
     14 N2          0.5474   -8.5750    1.5550 N.pl3     1 <0>        -0.4677
     15 C12         1.0017   -8.9666    0.3138 C.ar      1 <0>         0.1318
     16 C13         0.3978   -9.0351   -0.9377 C.ar      1 <0>        -0.1203
     17 C14         1.1145   -9.4766   -2.0277 C.ar      1 <0>        -0.1049
     18 C15         2.4462   -9.8587   -1.8915 C.ar      1 <0>         0.0818
     19 C16         3.0638   -9.7986   -0.6585 C.ar      1 <0>        -0.0876
     20 C17         2.3471   -9.3513    0.4549 C.ar      1 <0>        -0.0421
     21 C18         2.6716   -9.1651    1.8629 C.2       1 <0>        -0.1777
     22 C19         1.5689   -8.6891    2.5113 C.2       1 <0>         0.0974
     23 C20         1.7122   -8.4321    3.9567 C.ar      1 <0>        -0.0757
     24 C21         0.7262   -7.9447    4.8460 C.ar      1 <0>        -0.0731
     25 C22         1.0101   -7.7572    6.1624 C.ar      1 <0>        -0.1419
     26 C23         2.2729   -8.0360    6.6797 C.ar      1 <0>         0.1392
     27 C24         3.2633   -8.5150    5.8369 C.ar      1 <0>        -0.0981
     28 C25         2.9804   -8.7070    4.5009 C.ar      1 <0>        -0.0860
     29 S1          3.9203   -9.2940    3.1154 S.3       1 <0>         0.1184
     30 O2          2.5317   -7.8396    7.9996 O.3       1 <0>        -0.4913
     31 O3          3.1410  -10.2930   -2.9770 O.3       1 <0>        -0.4929
     32 H1          1.8730    0.0089   -0.7963 H         1 <0>         0.1278
     33 H2          0.8897   -1.4416   -1.1082 H         1 <0>         0.1206
     34 H3          0.4851    0.0966   -1.9073 H         1 <0>         0.1252
     35 H4         -0.4425    1.9089   -0.6204 H         1 <0>         0.1235
     36 H5         -0.6804    1.7164    1.1331 H         1 <0>         0.1250
     37 H6          0.9658    1.8244    0.4649 H         1 <0>         0.1263
     38 H7         -2.0438   -0.1446    0.6463 H         1 <0>         0.1430
     39 H8         -1.7080   -0.1315   -1.1017 H         1 <0>         0.1502
     40 H9         -2.3506   -2.3958   -0.4202 H         1 <0>         0.1099
     41 H10        -0.6274   -2.3845   -0.8658 H         1 <0>         0.0873
     42 H11        -1.4852   -4.2849   -0.7148 H         1 <0>         0.1306
     43 H12        -1.3903   -6.7261   -0.4148 H         1 <0>         0.1317
     44 H13        -0.3549   -6.1892    3.6878 H         1 <0>         0.1373
     45 H14        -0.4366   -3.7468    3.3932 H         1 <0>         0.1364
     46 H15        -1.0780   -8.3522    2.8617 H         1 <0>         0.0995
     47 H16        -1.5104   -8.5763    1.1496 H         1 <0>         0.1034
     48 H17        -0.6351   -8.7419   -1.0546 H         1 <0>         0.1267
     49 H18         0.6393   -9.5273   -2.9962 H         1 <0>         0.1378
     50 H19         4.0968  -10.0960   -0.5545 H         1 <0>         0.1346
     51 H20        -0.2628   -7.7188    4.4753 H         1 <0>         0.1260
     52 H21         0.2400   -7.3836    6.8210 H         1 <0>         0.1376
     53 H22         4.2476   -8.7356    6.2228 H         1 <0>         0.1460
     54 H23         2.3528   -8.6110    8.5545 H         1 <0>         0.4001
     55 H24         3.5969   -9.5898   -3.4593 H         1 <0>         0.3892
     56 H25         0.3404   -0.4258    0.9781 H         1 <0>         0.4339
@<TRIPOS>BOND
     1    1    2 1
     2    1   32 1
     3    1   33 1
     4    1   34 1
     5    2    3 1
     6    2    4 1
     7    2   56 1
     8    3   35 1
     9    3   36 1
    10    3   37 1
    11    4    5 1
    12    4   38 1
    13    4   39 1
    14    5    6 1
    15    5   40 1
    16    5   41 1
    17    6    7 1
    18    7   12 ar
    19    7    8 ar
    20    8    9 ar
    21    8   42 1
    22    9   10 ar
    23    9   43 1
    24   10   11 ar
    25   10   13 1
    26   11   12 ar
    27   11   44 1
    28   12   45 1
    29   13   14 1
    30   13   46 1
    31   13   47 1
    32   14   22 1
    33   14   15 1
    34   15   20 ar
    35   15   16 ar
    36   16   17 ar
    37   16   48 1
    38   17   18 ar
    39   17   49 1
    40   18   19 ar
    41   18   31 1
    42   19   20 ar
    43   19   50 1
    44   20   21 1
    45   21   29 1
    46   21   22 2
    47   22   23 1
    48   23   28 ar
    49   23   24 ar
    50   24   25 ar
    51   24   51 1
    52   25   26 ar
    53   25   52 1
    54   26   27 ar
    55   26   30 1
    56   27   28 ar
    57   27   53 1
    58   28   29 1
    59   30   54 1
    60   31   55 1
@<TRIPOS>MOLECULE
CHEMBL144195
   45    47     0     0     0
SMALL
USER_CHARGES

@<TRIPOS>ATOM
      1 C1          0.4651    1.5454   -0.8196 C.ar      1 <0>        -0.1250
      2 C2          1.5852    2.2443   -0.4100 C.ar      1 <0>        -0.1232
      3 C3          2.7684    1.5723   -0.1665 C.ar      1 <0>        -0.1202
      4 C4          2.8314    0.2014   -0.3323 C.ar      1 <0>        -0.0769
      5 C5          1.7111   -0.4976   -0.7411 C.ar      1 <0>        -0.1021
      6 C6          0.5282    0.1745   -0.9859 C.ar      1 <0>        -0.1169
      7 C7          4.1216   -0.5311   -0.0679 C.3       1 <0>        -0.0703
      8 C8          4.1714   -0.9633    1.3989 C.3       1 <0>         0.0077
      9 C9          5.5114   -1.5864    1.6938 C.ar      1 <0>        -0.0734
     10 C10         5.9946   -2.5989    0.8857 C.ar      1 <0>        -0.0965
     11 C11         7.2225   -3.1721    1.1542 C.ar      1 <0>        -0.1415
     12 C12         7.9712   -2.7307    2.2355 C.ar      1 <0>         0.0959
     13 C13         7.4844   -1.7143    3.0446 C.ar      1 <0>        -0.1430
     14 C14         6.2582   -1.1408    2.7688 C.ar      1 <0>        -0.0989
     15 O1          9.1792   -3.2932    2.5020 O.3       1 <0>        -0.5004
     16 C15         3.0806   -1.9689    1.6635 C.ar      1 <0>        -0.1256
     17 C16         2.9725   -3.0951    0.8687 C.ar      1 <0>        -0.0774
     18 C17         1.9732   -4.0182    1.1089 C.ar      1 <0>        -0.1588
     19 C18         1.0780   -3.8147    2.1490 C.ar      1 <0>         0.1414
     20 C19         1.1889   -2.6841    2.9454 C.ar      1 <0>        -0.2135
     21 C20         2.1931   -1.7666    2.7043 C.ar      1 <0>        -0.0675
     22 O2          0.0938   -4.7211    2.3871 O.3       1 <0>        -0.2819
     23 C21        -0.7917   -4.4466    3.4745 C.3       1 <0>        -0.0058
     24 C22        -1.8092   -5.5527    3.5852 C.2       1 <0>         0.5008
     25 O3         -1.7789   -6.4893    2.8052 O.co2     1 <0>        -0.6710
     26 O4         -2.6628   -5.5111    4.4548 O.co2     1 <0>        -0.6879
     27 H1         -0.4606    2.0698   -1.0054 H         1 <0>         0.1176
     28 H2          1.5359    3.3154   -0.2804 H         1 <0>         0.1173
     29 H3          3.6437    2.1184    0.1528 H         1 <0>         0.1176
     30 H4          1.7604   -1.5686   -0.8710 H         1 <0>         0.1226
     31 H5         -0.3470   -0.3715   -1.3056 H         1 <0>         0.1203
     32 H6          4.1775   -1.4114   -0.7082 H         1 <0>         0.0758
     33 H7          4.9636    0.1274   -0.2814 H         1 <0>         0.0745
     34 H8          4.0265   -0.0931    2.0392 H         1 <0>         0.0845
     35 H9          5.4114   -2.9422    0.0440 H         1 <0>         0.1281
     36 H10         7.5992   -3.9634    0.5231 H         1 <0>         0.1272
     37 H11         8.0653   -1.3689    3.8870 H         1 <0>         0.1261
     38 H12         5.8807   -0.3465    3.3957 H         1 <0>         0.1255
     39 H13         9.9219   -2.8569    2.0624 H         1 <0>         0.3870
     40 H14         3.6697   -3.2530    0.0591 H         1 <0>         0.1209
     41 H15         1.8887   -4.8973    0.4873 H         1 <0>         0.1282
     42 H16         0.4931   -2.5235    3.7557 H         1 <0>         0.1260
     43 H17         2.2825   -0.8886    3.3267 H         1 <0>         0.1156
     44 H18        -0.2209   -4.3840    4.4010 H         1 <0>         0.0585
     45 H19        -1.3021   -3.4999    3.2975 H         1 <0>         0.0586
@<TRIPOS>BOND
     1    1    6 ar
     2    1    2 ar
     3    1   27 1
     4    2    3 ar
     5    2   28 1
     6    3    4 ar
     7    3   29 1
     8    4    5 ar
     9    4    7 1
    10    5    6 ar
    11    5   30 1
    12    6   31 1
    13    7    8 1
    14    7   32 1
    15    7   33 1
    16    8    9 1
    17    8   16 1
    18    8   34 1
    19    9   14 ar
    20    9   10 ar
    21   10   11 ar
    22   10   35 1
    23   11   12 ar
    24   11   36 1
    25   12   13 ar
    26   12   15 1
    27   13   14 ar
    28   13   37 1
    29   14   38 1
    30   15   39 1
    31   16   21 ar
    32   16   17 ar
    33   17   18 ar
    34   17   40 1
    35   18   19 ar
    36   18   41 1
    37   19   20 ar
    38   19   22 1
    39   20   21 ar
    40   20   42 1
    41   21   43 1
    42   22   23 1
    43   23   24 1
    44   23   44 1
    45   23   45 1
    46   24   25 2
    47   24   26 1
@<TRIPOS>MOLECULE
CHEMBL144195__1
   45    47     0     0     0
SMALL
USER_CHARGES

@<TRIPOS>ATOM
      1 C1          0.2472    1.5703   -0.3714 C.ar      1 <0>        -0.1273
      2 C2          1.4928    2.1686   -0.4082 C.ar      1 <0>        -0.1203
      3 C3          2.6343    1.3950   -0.3110 C.ar      1 <0>        -0.1171
      4 C4          2.5302    0.0232   -0.1767 C.ar      1 <0>        -0.0742
      5 C5          1.2846   -0.5751   -0.1390 C.ar      1 <0>        -0.1087
      6 C6          0.1431    0.1984   -0.2376 C.ar      1 <0>        -0.1203
      7 C7          3.7747   -0.8203   -0.0718 C.3       1 <0>        -0.0742
      8 C8          4.1714   -0.9633    1.3989 C.3       1 <0>         0.0089
      9 C9          3.1048   -1.7332    2.1343 C.ar      1 <0>        -0.0647
     10 C10         2.5406   -1.2066    3.2815 C.ar      1 <0>        -0.0966
     11 C11         1.5630   -1.9106    3.9577 C.ar      1 <0>        -0.1415
     12 C12         1.1472   -3.1467    3.4845 C.ar      1 <0>         0.0953
     13 C13         1.7146   -3.6726    2.3329 C.ar      1 <0>        -0.1417
     14 C14         2.6881   -2.9623    1.6575 C.ar      1 <0>        -0.0992
     15 O1          0.1861   -3.8413    4.1482 O.3       1 <0>        -0.5005
     16 C15         5.4814   -1.7018    1.4963 C.ar      1 <0>        -0.1352
     17 C16         5.6424   -2.9105    0.8445 C.ar      1 <0>        -0.0742
     18 C17         6.8421   -3.5896    0.9326 C.ar      1 <0>        -0.1582
     19 C18         7.8861   -3.0577    1.6755 C.ar      1 <0>         0.1419
     20 C19         7.7221   -1.8446    2.3283 C.ar      1 <0>        -0.2152
     21 C20         6.5221   -1.1668    2.2328 C.ar      1 <0>        -0.0697
     22 O2          9.0671   -3.7241    1.7641 O.3       1 <0>        -0.2814
     23 C21        10.0976   -3.1170    2.5461 C.3       1 <0>        -0.0067
     24 C22        11.3236   -3.9931    2.5288 C.2       1 <0>         0.5009
     25 O3         11.3157   -5.0404    1.9045 O.co2     1 <0>        -0.6710
     26 O4         12.3234   -3.6546    3.1389 O.co2     1 <0>        -0.6876
     27 H1         -0.6447    2.1751   -0.4428 H         1 <0>         0.1171
     28 H2          1.5742    3.2404   -0.5131 H         1 <0>         0.1188
     29 H3          3.6075    1.8624   -0.3405 H         1 <0>         0.1211
     30 H4          1.2033   -1.6469   -0.0344 H         1 <0>         0.1197
     31 H5         -0.8301   -0.2691   -0.2085 H         1 <0>         0.1172
     32 H6          3.5817   -1.8066   -0.4937 H         1 <0>         0.0766
     33 H7          4.5851   -0.3420   -0.6219 H         1 <0>         0.0808
     34 H8          4.2779    0.0258    1.8444 H         1 <0>         0.0845
     35 H9          2.8646   -0.2443    3.6495 H         1 <0>         0.1228
     36 H10         1.1231   -1.4992    4.8542 H         1 <0>         0.1245
     37 H11         1.3926   -4.6346    1.9626 H         1 <0>         0.1262
     38 H12         3.1270   -3.3693    0.7585 H         1 <0>         0.1270
     39 H13        -0.7142   -3.6468    3.8534 H         1 <0>         0.3862
     40 H14         4.8294   -3.3241    0.2662 H         1 <0>         0.1220
     41 H15         6.9672   -4.5340    0.4238 H         1 <0>         0.1293
     42 H16         8.5333   -1.4284    2.9073 H         1 <0>         0.1277
     43 H17         6.3955   -0.2202    2.7371 H         1 <0>         0.1183
     44 H18        10.3429   -2.1404    2.1286 H         1 <0>         0.0593
     45 H19         9.7515   -2.9967    3.5727 H         1 <0>         0.0592
@<TRIPOS>BOND
     1    1    6 ar
     2    1    2 ar
     3    1   27 1
     4    2    3 ar
     5    2   28 1
     6    3    4 ar
     7    3   29 1
     8    4    5 ar
     9    4    7 1
    10    5    6 ar
    11    5   30 1
    12    6   31 1
    13    7    8 1
    14    7   32 1
    15    7   33 1
    16    8    9 1
    17    8   16 1
    18    8   34 1
    19    9   14 ar
    20    9   10 ar
    21   10   11 ar
    22   10   35 1
    23   11   12 ar
    24   11   36 1
    25   12   13 ar
    26   12   15 1
    27   13   14 ar
    28   13   37 1
    29   14   38 1
    30   15   39 1
    31   16   21 ar
    32   16   17 ar
    33   17   18 ar
    34   17   40 1
    35   18   19 ar
    36   18   41 1
    37   19   20 ar
    38   19   22 1
    39   20   21 ar
    40   20   42 1
    41   21   43 1
    42   22   23 1
    43   23   24 1
    44   23   44 1
    45   23   45 1
    46   24   25 2
    47   24   26 1
@<TRIPOS>MOLECULE
CHEMBL569766
   44    48     0     0     0
SMALL
USER_CHARGES

@<TRIPOS>ATOM
      1 C1         -0.0184    1.5028    0.0103 C.3       1 <0>        -0.2009
      2 C2          0.0021   -0.0041    0.0020 C.2       1 <0>         0.3978
      3 O1          1.0607   -0.5962   -0.0113 O.2       1 <0>        -0.4703
      4 C3         -1.2587   -0.7551    0.0100 C.ar      1 <0>        -0.2339
      5 C4         -2.4831   -0.0735    0.0196 C.ar      1 <0>        -0.0237
      6 C5         -3.6488   -0.7812    0.0332 C.ar      1 <0>        -0.2072
      7 C6         -3.6272   -2.1781    0.0357 C.ar      1 <0>         0.2586
      8 C7         -2.4190   -2.8600    0.0146 C.ar      1 <0>        -0.1585
      9 C8         -1.2427   -2.1534    0.0024 C.ar      1 <0>        -0.0032
     10 C9         -2.3452   -4.3610   -0.0206 C.3       1 <0>        -0.0065
     11 H1         -1.9612   -4.7435    0.9251 H         1 <0>         0.0898
     12 C10        -1.4242   -4.7545   -1.1646 C.2       1 <0>        -0.1564
     13 C11        -2.1182   -5.1421   -2.2028 C.2       1 <0>        -0.1598
     14 C12        -3.6036   -5.0802   -1.9143 C.3       1 <0>        -0.0915
     15 C13        -3.6814   -5.0183   -0.3559 C.3       1 <0>        -0.0962
     16 H2         -3.6866   -6.0338    0.0403 H         1 <0>         0.0990
     17 C14        -4.9053   -4.3097    0.1428 C.3       1 <0>         0.2102
     18 H3         -5.0838   -4.6141    1.1741 H         1 <0>         0.0924
     19 N1         -4.8278   -2.8641    0.0657 N.pl3     1 <0>        -0.7245
     20 C15        -6.0820   -4.7457   -0.6916 C.ar      1 <0>        -0.0611
     21 C16        -6.4717   -3.9908   -1.7826 C.ar      1 <0>        -0.0856
     22 C17        -7.5532   -4.3892   -2.5508 C.ar      1 <0>         0.0551
     23 C18        -8.2464   -5.5519   -2.2218 C.ar      1 <0>         0.0421
     24 C19        -7.8510   -6.3037   -1.1279 C.ar      1 <0>        -0.0694
     25 C20        -6.7664   -5.9030   -0.3681 C.ar      1 <0>        -0.0782
     26 Br1        -6.2238   -6.9354    1.1205 Br        1 <0>        -0.0198
     27 O2         -9.2585   -5.7255   -3.1211 O.3       1 <0>        -0.3016
     28 C21        -9.4314   -4.4454   -3.7572 C.3       1 <0>         0.2119
     29 O3         -8.1313   -3.8348   -3.6562 O.3       1 <0>        -0.3020
     30 H4          1.0042    1.8801    0.0026 H         1 <0>         0.0824
     31 H5         -0.5455    1.8639   -0.8728 H         1 <0>         0.0913
     32 H6         -0.5286    1.8543    0.9071 H         1 <0>         0.0917
     33 H7         -2.5034    1.0063    0.0165 H         1 <0>         0.1315
     34 H8         -4.5940   -0.2587    0.0425 H         1 <0>         0.1275
     35 H9         -0.2997   -2.6799   -0.0090 H         1 <0>         0.1311
     36 H10        -0.3455   -4.7188   -1.1252 H         1 <0>         0.1302
     37 H11        -1.6895   -5.4633   -3.1405 H         1 <0>         0.1271
     38 H12        -4.0422   -4.1850   -2.3552 H         1 <0>         0.0779
     39 H13        -4.1032   -5.9751   -2.2854 H         1 <0>         0.0722
     40 H14        -5.6531   -2.3545    0.0586 H         1 <0>         0.4050
     41 H15        -5.9328   -3.0898   -2.0357 H         1 <0>         0.1473
     42 H16        -8.3868   -7.2054   -0.8704 H         1 <0>         0.1496
     43 H17        -9.7149   -4.5721   -4.8020 H         1 <0>         0.1380
     44 H18       -10.1757   -3.8515   -3.2267 H         1 <0>         0.0905
@<TRIPOS>BOND
     1    1    2 1
     2    1   30 1
     3    1   31 1
     4    1   32 1
     5    2    3 2
     6    2    4 1
     7    4    9 ar
     8    4    5 ar
     9    5    6 ar
    10    5   33 1
    11    6    7 ar
    12    6   34 1
    13    7   19 1
    14    7    8 ar
    15    8    9 ar
    16    8   10 1
    17    9   35 1
    18   10   11 1
    19   10   15 1
    20   10   12 1
    21   12   13 2
    22   12   36 1
    23   13   14 1
    24   13   37 1
    25   14   15 1
    26   14   38 1
    27   14   39 1
    28   15   16 1
    29   15   17 1
    30   17   18 1
    31   17   19 1
    32   17   20 1
    33   19   40 1
    34   20   25 ar
    35   20   21 ar
    36   21   22 ar
    37   21   41 1
    38   22   29 1
    39   22   23 ar
    40   23   24 ar
    41   23   27 1
    42   24   25 ar
    43   24   42 1
    44   25   26 1
    45   27   28 1
    46   28   29 1
    47   28   43 1
    48   28   44 1
@<TRIPOS>MOLECULE
CHEMBL66279
   34    36     0     0     0
SMALL
USER_CHARGES

@<TRIPOS>ATOM
      1 C1         -0.0167    1.3768    0.0096 C.ar      1 <0>        -0.1112
      2 C2          1.1667    2.0887    0.0021 C.ar      1 <0>        -0.1092
      3 C3          2.3878    1.4161   -0.0136 C.ar      1 <0>        -0.0405
      4 C4          2.4128    0.0248   -0.0214 C.ar      1 <0>        -0.1020
      5 C5          1.2173   -0.6873   -0.0133 C.ar      1 <0>        -0.0405
      6 C6          0.0021   -0.0041    0.0020 C.ar      1 <0>        -0.1092
      7 C7          1.2359   -2.1709   -0.0220 C.ar      1 <0>        -0.0550
      8 C8          2.4507   -2.8539   -0.0323 C.ar      1 <0>        -0.0938
      9 C9          2.4648   -4.2329   -0.0399 C.ar      1 <0>        -0.1416
     10 C10         1.2705   -4.9407   -0.0372 C.ar      1 <0>         0.1073
     11 C11         0.0588   -4.2631   -0.0273 C.ar      1 <0>        -0.1417
     12 C12         0.0385   -2.8842   -0.0139 C.ar      1 <0>        -0.0929
     13 O1          1.2875   -6.2993   -0.0446 O.3       1 <0>        -0.4994
     14 C13         3.6584    2.1823   -0.0226 C.ar      1 <0>        -0.0550
     15 C14         4.8790    1.5101   -0.0442 C.ar      1 <0>        -0.0938
     16 C15         6.0583    2.2249   -0.0530 C.ar      1 <0>        -0.1416
     17 C16         6.0304    3.6129   -0.0404 C.ar      1 <0>         0.1073
     18 C17         4.8160    4.2853   -0.0184 C.ar      1 <0>        -0.1417
     19 C18         3.6334    3.5758   -0.0153 C.ar      1 <0>        -0.0929
     20 O2          7.1939    4.3146   -0.0491 O.3       1 <0>        -0.4993
     21 H1         -0.9603    1.9019    0.0260 H         1 <0>         0.1288
     22 H2          1.1461    3.1685    0.0081 H         1 <0>         0.1274
     23 H3          3.3564   -0.5003   -0.0339 H         1 <0>         0.1286
     24 H4         -0.9264   -0.5557    0.0079 H         1 <0>         0.1273
     25 H5          3.3801   -2.3038   -0.0348 H         1 <0>         0.1293
     26 H6          3.4059   -4.7628   -0.0483 H         1 <0>         0.1320
     27 H7         -0.8687   -4.8163   -0.0255 H         1 <0>         0.1321
     28 H8         -0.9043   -2.3576   -0.0013 H         1 <0>         0.1313
     29 H9          1.2972   -6.6974    0.8366 H         1 <0>         0.3926
     30 H10         4.9014    0.4303   -0.0537 H         1 <0>         0.1293
     31 H11         7.0045    1.7045   -0.0694 H         1 <0>         0.1319
     32 H12         4.7973    5.3651   -0.0083 H         1 <0>         0.1321
     33 H13         2.6889    4.0995   -0.0031 H         1 <0>         0.1313
     34 H14         7.5194    4.5255   -0.9349 H         1 <0>         0.3926
@<TRIPOS>BOND
     1    1    6 ar
     2    1    2 ar
     3    1   21 1
     4    2    3 ar
     5    2   22 1
     6    3    4 ar
     7    3   14 1
     8    4    5 ar
     9    4   23 1
    10    5    6 ar
    11    5    7 1
    12    6   24 1
    13    7   12 ar
    14    7    8 ar
    15    8    9 ar
    16    8   25 1
    17    9   10 ar
    18    9   26 1
    19   10   11 ar
    20   10   13 1
    21   11   12 ar
    22   11   27 1
    23   12   28 1
    24   13   29 1
    25   14   19 ar
    26   14   15 ar
    27   15   16 ar
    28   15   30 1
    29   16   17 ar
    30   16   31 1
    31   17   18 ar
    32   17   20 1
    33   18   19 ar
    34   18   32 1
    35   19   33 1
    36   20   34 1
@<TRIPOS>MOLECULE
CHEMBL184958
   67    72     0     0     0
SMALL
USER_CHARGES

@<TRIPOS>ATOM
      1 C1         -0.0167    1.3781    0.0096 C.ar      1 <0>        -0.1097
      2 C2          1.1709    2.0855    0.0021 C.ar      1 <0>        -0.1027
      3 C3          2.3773    1.4107   -0.0130 C.ar      1 <0>        -0.1344
      4 C4          2.3960    0.0285   -0.0201 C.ar      1 <0>        -0.1064
      5 C5          1.2085   -0.6789   -0.0117 C.ar      1 <0>        -0.0942
      6 C6          0.0021   -0.0041    0.0020 C.ar      1 <0>        -0.0506
      7 C7         -1.2926   -0.7753    0.0107 C.3       1 <0>         0.0542
      8 C8         -1.3605   -1.6078    1.2600 C.ar      1 <0>        -0.0807
      9 C9         -1.7039   -0.9535    2.4404 C.ar      1 <0>        -0.0915
     10 C10        -1.7836   -1.6407    3.6311 C.ar      1 <0>        -0.1411
     11 C11        -1.5201   -3.0028    3.6606 C.ar      1 <0>         0.1171
     12 C12        -1.1806   -3.6561    2.4882 C.ar      1 <0>        -0.1412
     13 C13        -1.1020   -2.9595    1.2908 C.ar      1 <0>        -0.0516
     14 C14        -0.7310   -3.7371    0.0528 C.3       1 <0>        -0.0067
     15 C15        -1.1026   -2.9634   -1.1674 C.2       1 <0>        -0.1291
     16 C16        -1.3645   -1.6396   -1.2367 C.2       1 <0>        -0.0946
     17 C17        -1.7079   -1.1081   -2.5501 C.ar      1 <0>        -0.0859
     18 C18        -2.0201    0.2419   -2.8524 C.ar      1 <0>        -0.0559
     19 C19        -2.3147    0.5461   -4.1518 C.ar      1 <0>        -0.1487
     20 C20        -2.3213   -0.3958   -5.1739 C.ar      1 <0>         0.1284
     21 C21        -2.0212   -1.7325   -4.9190 C.ar      1 <0>        -0.0971
     22 C22        -1.7236   -2.0483   -3.6108 C.ar      1 <0>        -0.1070
     23 S1         -1.2939   -3.5681   -2.8254 S.3       1 <0>         0.0662
     24 O1         -2.6253   -0.0074   -6.4408 O.3       1 <0>        -0.4931
     25 O2         -1.5943   -3.6898    4.8308 O.3       1 <0>        -0.4973
     26 C23         3.6720    2.1819   -0.0222 C.3       1 <0>         0.1605
     27 C24         4.1602    2.3416   -1.4634 C.3       1 <0>        -0.1792
     28 C25         5.4061    3.2294   -1.4844 C.3       1 <0>        -0.0078
     29 N1          5.8749    3.3827   -2.8681 N.4       1 <0>        -0.3826
     30 C26         6.3084    2.0786   -3.3836 C.3       1 <0>        -0.0121
     31 C27         6.7216    2.2174   -4.8504 C.3       1 <0>        -0.1457
     32 C28         7.8747    3.2194   -4.9577 C.3       1 <0>        -0.1395
     33 C29         7.4359    4.5546   -4.3494 C.3       1 <0>        -0.1463
     34 C30         6.9963    4.3292   -2.9012 C.3       1 <0>        -0.0069
     35 O3          4.6536    1.4739    0.7375 O.3       1 <0>        -0.5492
     36 H1         -0.9591    1.9053    0.0259 H         1 <0>         0.1278
     37 H2          1.1563    3.1654    0.0076 H         1 <0>         0.1252
     38 H3          3.3385   -0.4987   -0.0326 H         1 <0>         0.1189
     39 H4          1.2231   -1.7588   -0.0179 H         1 <0>         0.1235
     40 H5         -2.1259   -0.0726    0.0060 H         1 <0>         0.0997
     41 H6         -1.9100    0.1065    2.4218 H         1 <0>         0.1267
     42 H7         -2.0508   -1.1211    4.5394 H         1 <0>         0.1329
     43 H8         -0.9747   -4.7162    2.5058 H         1 <0>         0.1338
     44 H9          0.3431   -3.9223    0.0504 H         1 <0>         0.1025
     45 H10        -1.2605   -4.6899    0.0520 H         1 <0>         0.1019
     46 H11        -2.0252    1.0011   -2.0843 H         1 <0>         0.1346
     47 H12        -2.5548    1.5702   -4.3968 H         1 <0>         0.1298
     48 H13        -2.0218   -2.4775   -5.7008 H         1 <0>         0.1480
     49 H14        -1.8590    0.2674   -6.9625 H         1 <0>         0.3935
     50 H15        -2.4694   -4.0570    5.0165 H         1 <0>         0.3959
     51 H16         3.5119    3.1660    0.4183 H         1 <0>         0.1172
     52 H17         4.4050    1.3623   -1.8747 H         1 <0>         0.0917
     53 H18         3.3757    2.8021   -2.0639 H         1 <0>         0.0988
     54 H19         5.1614    4.2087   -1.0731 H         1 <0>         0.1324
     55 H20         6.1906    2.7689   -0.8839 H         1 <0>         0.1363
     56 H21         7.1569    1.7215   -2.7999 H         1 <0>         0.1290
     57 H22         5.4877    1.3657   -3.3037 H         1 <0>         0.1289
     58 H23         7.0448    1.2484   -5.2308 H         1 <0>         0.1115
     59 H24         5.8737    2.5742   -5.4352 H         1 <0>         0.0868
     60 H25         8.7401    2.8386   -4.4152 H         1 <0>         0.0820
     61 H26         8.1352    3.3645   -6.0061 H         1 <0>         0.0942
     62 H27         8.2698    5.2562   -4.3717 H         1 <0>         0.1125
     63 H28         6.6029    4.9600   -4.9238 H         1 <0>         0.0871
     64 H29         6.6835    5.2779   -2.4651 H         1 <0>         0.1301
     65 H30         7.8301    3.9241   -2.3277 H         1 <0>         0.1287
     66 H31         4.8468    0.5879    0.4019 H         1 <0>         0.3790
     67 H32         5.1220    3.7348   -3.4402 H         1 <0>         0.4210
@<TRIPOS>BOND
     1    1    6 ar
     2    1    2 ar
     3    1   36 1
     4    2    3 ar
     5    2   37 1
     6    3    4 ar
     7    3   26 1
     8    4    5 ar
     9    4   38 1
    10    5    6 ar
    11    5   39 1
    12    6    7 1
    13    7   16 1
    14    7    8 1
    15    7   40 1
    16    8   13 ar
    17    8    9 ar
    18    9   10 ar
    19    9   41 1
    20   10   11 ar
    21   10   42 1
    22   11   12 ar
    23   11   25 1
    24   12   13 ar
    25   12   43 1
    26   13   14 1
    27   14   15 1
    28   14   44 1
    29   14   45 1
    30   15   23 1
    31   15   16 2
    32   16   17 1
    33   17   22 ar
    34   17   18 ar
    35   18   19 ar
    36   18   46 1
    37   19   20 ar
    38   19   47 1
    39   20   21 ar
    40   20   24 1
    41   21   22 ar
    42   21   48 1
    43   22   23 1
    44   24   49 1
    45   25   50 1
    46   26   27 1
    47   26   35 1
    48   26   51 1
    49   27   28 1
    50   27   52 1
    51   27   53 1
    52   28   29 1
    53   28   54 1
    54   28   55 1
    55   29   34 1
    56   29   30 1
    57   29   67 1
    58   30   31 1
    59   30   56 1
    60   30   57 1
    61   31   32 1
    62   31   58 1
    63   31   59 1
    64   32   33 1
    65   32   60 1
    66   32   61 1
    67   33   34 1
    68   33   62 1
    69   33   63 1
    70   34   64 1
    71   34   65 1
    72   35   66 1
@<TRIPOS>MOLECULE
CHEMBL184958__1
   67    72     0     0     0
SMALL
USER_CHARGES

@<TRIPOS>ATOM
      1 C1         -0.0167    1.3781    0.0096 C.ar      1 <0>        -0.1098
      2 C2          1.1709    2.0855    0.0021 C.ar      1 <0>        -0.1018
      3 C3          2.3773    1.4107   -0.0130 C.ar      1 <0>        -0.1346
      4 C4          2.3960    0.0285   -0.0201 C.ar      1 <0>        -0.1066
      5 C5          1.2085   -0.6789   -0.0117 C.ar      1 <0>        -0.0944
      6 C6          0.0021   -0.0041    0.0020 C.ar      1 <0>        -0.0501
      7 C7         -1.2926   -0.7753    0.0107 C.3       1 <0>         0.0534
      8 C8         -1.3605   -1.6078    1.2600 C.ar      1 <0>        -0.0777
      9 C9         -1.7039   -0.9535    2.4404 C.ar      1 <0>        -0.0927
     10 C10        -1.7836   -1.6407    3.6311 C.ar      1 <0>        -0.1431
     11 C11        -1.5201   -3.0028    3.6606 C.ar      1 <0>         0.1150
     12 C12        -1.1806   -3.6561    2.4882 C.ar      1 <0>        -0.1408
     13 C13        -1.1020   -2.9595    1.2908 C.ar      1 <0>        -0.0496
     14 C14        -0.7310   -3.7371    0.0528 C.3       1 <0>        -0.0065
     15 C15        -1.1026   -2.9634   -1.1674 C.2       1 <0>        -0.1333
     16 C16        -1.3645   -1.6396   -1.2367 C.2       1 <0>        -0.0936
     17 C17        -1.7079   -1.1081   -2.5501 C.ar      1 <0>        -0.0885
     18 C18        -2.0201    0.2419   -2.8524 C.ar      1 <0>        -0.0553
     19 C19        -2.3147    0.5461   -4.1518 C.ar      1 <0>        -0.1474
     20 C20        -2.3213   -0.3958   -5.1739 C.ar      1 <0>         0.1316
     21 C21        -2.0212   -1.7325   -4.9190 C.ar      1 <0>        -0.0974
     22 C22        -1.7236   -2.0483   -3.6108 C.ar      1 <0>        -0.1054
     23 S1         -1.2939   -3.5681   -2.8254 S.3       1 <0>         0.0670
     24 O1         -2.6253   -0.0074   -6.4408 O.3       1 <0>        -0.4940
     25 O2         -1.5943   -3.6898    4.8308 O.3       1 <0>        -0.4986
     26 C23         3.6720    2.1819   -0.0222 C.3       1 <0>         0.1608
     27 C24         4.2524    2.2211    1.3929 C.3       1 <0>        -0.1798
     28 C25         5.4994    3.1074    1.4083 C.3       1 <0>        -0.0073
     29 N1          6.0567    3.1450    2.7670 N.4       1 <0>        -0.3828
     30 C26         5.0979    3.7934    3.6696 C.3       1 <0>        -0.0127
     31 C27         5.6382    3.7629    5.1010 C.3       1 <0>        -0.1459
     32 C28         6.9748    4.5085    5.1523 C.3       1 <0>        -0.1395
     33 C29         7.9432    3.8697    4.1526 C.3       1 <0>        -0.1464
     34 C30         7.3176    3.8963    2.7565 C.3       1 <0>        -0.0067
     35 O3          4.6007    1.5430   -0.9005 O.3       1 <0>        -0.5497
     36 H1         -0.9591    1.9053    0.0259 H         1 <0>         0.1279
     37 H2          1.1563    3.1654    0.0076 H         1 <0>         0.1252
     38 H3          3.3385   -0.4987   -0.0326 H         1 <0>         0.1187
     39 H4          1.2231   -1.7588   -0.0179 H         1 <0>         0.1235
     40 H5         -2.1259   -0.0726    0.0060 H         1 <0>         0.0999
     41 H6         -1.9100    0.1065    2.4218 H         1 <0>         0.1262
     42 H7         -2.0508   -1.1211    4.5394 H         1 <0>         0.1314
     43 H8         -0.9747   -4.7162    2.5058 H         1 <0>         0.1338
     44 H9          0.3431   -3.9223    0.0504 H         1 <0>         0.1023
     45 H10        -1.2605   -4.6899    0.0520 H         1 <0>         0.1018
     46 H11        -2.0252    1.0011   -2.0843 H         1 <0>         0.1339
     47 H12        -2.5548    1.5702   -4.3968 H         1 <0>         0.1308
     48 H13        -2.0218   -2.4775   -5.7008 H         1 <0>         0.1486
     49 H14        -1.8590    0.2674   -6.9625 H         1 <0>         0.3959
     50 H15        -2.4694   -4.0570    5.0165 H         1 <0>         0.3963
     51 H16         3.4865    3.1991   -0.3672 H         1 <0>         0.1163
     52 H17         3.5094    2.6273    2.0792 H         1 <0>         0.0993
     53 H18         4.5204    1.2113    1.7037 H         1 <0>         0.0917
     54 H19         6.2424    2.7011    0.7220 H         1 <0>         0.1376
     55 H20         5.2314    4.1171    1.0975 H         1 <0>         0.1305
     56 H21         4.9501    4.8279    3.3596 H         1 <0>         0.1286
     57 H22         4.1462    3.2635    3.6296 H         1 <0>         0.1300
     58 H23         4.9258    4.2464    5.7693 H         1 <0>         0.1117
     59 H24         5.7862    2.7287    5.4122 H         1 <0>         0.0870
     60 H25         6.8186    5.5551    4.8906 H         1 <0>         0.0818
     61 H26         7.3914    4.4412    6.1573 H         1 <0>         0.0942
     62 H27         8.8784    4.4296    4.1432 H         1 <0>         0.1124
     63 H28         8.1390    2.8378    4.4441 H         1 <0>         0.0872
     64 H29         8.0045    3.4424    2.0422 H         1 <0>         0.1304
     65 H30         7.1224    4.9286    2.4659 H         1 <0>         0.1283
     66 H31         4.8128    0.6324   -0.6538 H         1 <0>         0.3798
     67 H32         6.2303    2.2030    3.0844 H         1 <0>         0.4214
@<TRIPOS>BOND
     1    1    6 ar
     2    1    2 ar
     3    1   36 1
     4    2    3 ar
     5    2   37 1
     6    3    4 ar
     7    3   26 1
     8    4    5 ar
     9    4   38 1
    10    5    6 ar
    11    5   39 1
    12    6    7 1
    13    7   16 1
    14    7    8 1
    15    7   40 1
    16    8   13 ar
    17    8    9 ar
    18    9   10 ar
    19    9   41 1
    20   10   11 ar
    21   10   42 1
    22   11   12 ar
    23   11   25 1
    24   12   13 ar
    25   12   43 1
    26   13   14 1
    27   14   15 1
    28   14   44 1
    29   14   45 1
    30   15   23 1
    31   15   16 2
    32   16   17 1
    33   17   22 ar
    34   17   18 ar
    35   18   19 ar
    36   18   46 1
    37   19   20 ar
    38   19   47 1
    39   20   21 ar
    40   20   24 1
    41   21   22 ar
    42   21   48 1
    43   22   23 1
    44   24   49 1
    45   25   50 1
    46   26   27 1
    47   26   35 1
    48   26   51 1
    49   27   28 1
    50   27   52 1
    51   27   53 1
    52   28   29 1
    53   28   54 1
    54   28   55 1
    55   29   34 1
    56   29   30 1
    57   29   67 1
    58   30   31 1
    59   30   56 1
    60   30   57 1
    61   31   32 1
    62   31   58 1
    63   31   59 1
    64   32   33 1
    65   32   60 1
    66   32   61 1
    67   33   34 1
    68   33   62 1
    69   33   63 1
    70   34   64 1
    71   34   65 1
    72   35   66 1
@<TRIPOS>MOLECULE
CHEMBL184958__2
   67    72     0     0     0
SMALL
USER_CHARGES

@<TRIPOS>ATOM
      1 C1         -0.0167    1.3781    0.0096 C.ar      1 <0>        -0.1095
      2 C2          1.1709    2.0855    0.0021 C.ar      1 <0>        -0.1025
      3 C3          2.3773    1.4107   -0.0130 C.ar      1 <0>        -0.1344
      4 C4          2.3960    0.0285   -0.0201 C.ar      1 <0>        -0.1066
      5 C5          1.2085   -0.6789   -0.0117 C.ar      1 <0>        -0.0950
      6 C6          0.0021   -0.0041    0.0020 C.ar      1 <0>        -0.0504
      7 C7         -1.2926   -0.7753    0.0107 C.3       1 <0>         0.0535
      8 C8         -1.3843   -1.5975   -1.2442 C.ar      1 <0>        -0.0771
      9 C9         -1.7738   -0.9400   -2.4081 C.ar      1 <0>        -0.0928
     10 C10        -1.8784   -1.6196   -3.6014 C.ar      1 <0>        -0.1429
     11 C11        -1.5922   -2.9766   -3.6502 C.ar      1 <0>         0.1146
     12 C12        -1.2065   -3.6331   -2.4940 C.ar      1 <0>        -0.1406
     13 C13        -1.1055   -2.9448   -1.2938 C.ar      1 <0>        -0.0502
     14 C14        -0.6918   -3.7260   -0.0714 C.3       1 <0>        -0.0064
     15 C15        -1.0622   -2.9731    1.1623 C.2       1 <0>        -0.1337
     16 C16        -1.3406   -1.6534    1.2500 C.2       1 <0>        -0.0938
     17 C17        -1.6795   -1.1422    2.5723 C.ar      1 <0>        -0.0885
     18 C18        -2.0008    0.2008    2.8950 C.ar      1 <0>        -0.0555
     19 C19        -2.2944    0.4842    4.1993 C.ar      1 <0>        -0.1473
     20 C20        -2.2907   -0.4722    5.2079 C.ar      1 <0>         0.1317
     21 C21        -1.9787   -1.8022    4.9334 C.ar      1 <0>        -0.0974
     22 C22        -1.6812   -2.0968    3.6204 C.ar      1 <0>        -0.1051
     23 S1         -1.2343   -3.6010    2.8135 S.3       1 <0>         0.0672
     24 O1         -2.5953   -0.1046    6.4808 O.3       1 <0>        -0.4951
     25 O2         -1.6902   -3.6556   -4.8233 O.3       1 <0>        -0.4954
     26 C23         3.6720    2.1819   -0.0222 C.3       1 <0>         0.1603
     27 C24         4.1602    2.3416   -1.4634 C.3       1 <0>        -0.1790
     28 C25         5.4061    3.2294   -1.4844 C.3       1 <0>        -0.0079
     29 N1          5.8749    3.3827   -2.8681 N.4       1 <0>        -0.3826
     30 C26         6.3084    2.0786   -3.3836 C.3       1 <0>        -0.0120
     31 C27         6.7216    2.2174   -4.8504 C.3       1 <0>        -0.1457
     32 C28         7.8747    3.2194   -4.9577 C.3       1 <0>        -0.1396
     33 C29         7.4359    4.5546   -4.3494 C.3       1 <0>        -0.1464
     34 C30         6.9963    4.3292   -2.9012 C.3       1 <0>        -0.0069
     35 O3          4.6536    1.4739    0.7375 O.3       1 <0>        -0.5491
     36 H1         -0.9591    1.9053    0.0259 H         1 <0>         0.1278
     37 H2          1.1563    3.1654    0.0076 H         1 <0>         0.1253
     38 H3          3.3385   -0.4987   -0.0326 H         1 <0>         0.1188
     39 H4          1.2231   -1.7588   -0.0179 H         1 <0>         0.1236
     40 H5         -2.1260   -0.0732    0.0381 H         1 <0>         0.0999
     41 H6         -1.9971    0.1161   -2.3746 H         1 <0>         0.1264
     42 H7         -2.1827   -1.0979   -4.4967 H         1 <0>         0.1316
     43 H8         -0.9830   -4.6893   -2.5265 H         1 <0>         0.1339
     44 H9         -1.1965   -4.6920   -0.0712 H         1 <0>         0.1019
     45 H10         0.3868   -3.8825   -0.0897 H         1 <0>         0.1020
     46 H11        -2.0126    0.9712    2.1382 H         1 <0>         0.1339
     47 H12        -2.5416    1.5028    4.4595 H         1 <0>         0.1308
     48 H13        -1.9702   -2.5581    5.7047 H         1 <0>         0.1486
     49 H14        -3.5367   -0.1659    6.6933 H         1 <0>         0.3972
     50 H15        -0.8731   -3.6674   -5.3404 H         1 <0>         0.3926
     51 H16         3.5119    3.1660    0.4183 H         1 <0>         0.1172
     52 H17         4.4050    1.3623   -1.8747 H         1 <0>         0.0918
     53 H18         3.3757    2.8021   -2.0639 H         1 <0>         0.0991
     54 H19         5.1614    4.2087   -1.0731 H         1 <0>         0.1324
     55 H20         6.1906    2.7689   -0.8839 H         1 <0>         0.1362
     56 H21         7.1569    1.7215   -2.7999 H         1 <0>         0.1289
     57 H22         5.4877    1.3657   -3.3037 H         1 <0>         0.1289
     58 H23         7.0448    1.2484   -5.2308 H         1 <0>         0.1115
     59 H24         5.8737    2.5742   -5.4352 H         1 <0>         0.0869
     60 H25         8.7401    2.8386   -4.4152 H         1 <0>         0.0820
     61 H26         8.1352    3.3645   -6.0061 H         1 <0>         0.0942
     62 H27         8.2698    5.2562   -4.3717 H         1 <0>         0.1124
     63 H28         6.6029    4.9600   -4.9238 H         1 <0>         0.0872
     64 H29         6.6835    5.2779   -2.4651 H         1 <0>         0.1302
     65 H30         7.8301    3.9241   -2.3277 H         1 <0>         0.1287
     66 H31         4.8468    0.5879    0.4019 H         1 <0>         0.3788
     67 H32         5.1220    3.7348   -3.4402 H         1 <0>         0.4211
@<TRIPOS>BOND
     1    1    6 ar
     2    1    2 ar
     3    1   36 1
     4    2    3 ar
     5    2   37 1
     6    3    4 ar
     7    3   26 1
     8    4    5 ar
     9    4   38 1
    10    5    6 ar
    11    5   39 1
    12    6    7 1
    13    7   16 1
    14    7    8 1
    15    7   40 1
    16    8   13 ar
    17    8    9 ar
    18    9   10 ar
    19    9   41 1
    20   10   11 ar
    21   10   42 1
    22   11   12 ar
    23   11   25 1
    24   12   13 ar
    25   12   43 1
    26   13   14 1
    27   14   15 1
    28   14   44 1
    29   14   45 1
    30   15   23 1
    31   15   16 2
    32   16   17 1
    33   17   22 ar
    34   17   18 ar
    35   18   19 ar
    36   18   46 1
    37   19   20 ar
    38   19   47 1
    39   20   21 ar
    40   20   24 1
    41   21   22 ar
    42   21   48 1
    43   22   23 1
    44   24   49 1
    45   25   50 1
    46   26   27 1
    47   26   35 1
    48   26   51 1
    49   27   28 1
    50   27   52 1
    51   27   53 1
    52   28   29 1
    53   28   54 1
    54   28   55 1
    55   29   34 1
    56   29   30 1
    57   29   67 1
    58   30   31 1
    59   30   56 1
    60   30   57 1
    61   31   32 1
    62   31   58 1
    63   31   59 1
    64   32   33 1
    65   32   60 1
    66   32   61 1
    67   33   34 1
    68   33   62 1
    69   33   63 1
    70   34   64 1
    71   34   65 1
    72   35   66 1
@<TRIPOS>MOLECULE
CHEMBL184958__3
   67    72     0     0     0
SMALL
USER_CHARGES

@<TRIPOS>ATOM
      1 C1         -0.0167    1.3781    0.0096 C.ar      1 <0>        -0.1096
      2 C2          1.1709    2.0855    0.0021 C.ar      1 <0>        -0.1015
      3 C3          2.3773    1.4107   -0.0130 C.ar      1 <0>        -0.1345
      4 C4          2.3960    0.0285   -0.0201 C.ar      1 <0>        -0.1067
      5 C5          1.2085   -0.6789   -0.0117 C.ar      1 <0>        -0.0952
      6 C6          0.0021   -0.0041    0.0020 C.ar      1 <0>        -0.0501
      7 C7         -1.2926   -0.7753    0.0107 C.3       1 <0>         0.0542
      8 C8         -1.3843   -1.5975   -1.2442 C.ar      1 <0>        -0.0802
      9 C9         -1.7738   -0.9400   -2.4081 C.ar      1 <0>        -0.0915
     10 C10        -1.8784   -1.6196   -3.6014 C.ar      1 <0>        -0.1409
     11 C11        -1.5922   -2.9766   -3.6502 C.ar      1 <0>         0.1169
     12 C12        -1.2065   -3.6331   -2.4940 C.ar      1 <0>        -0.1411
     13 C13        -1.1055   -2.9448   -1.2938 C.ar      1 <0>        -0.0520
     14 C14        -0.6918   -3.7260   -0.0714 C.3       1 <0>        -0.0067
     15 C15        -1.0622   -2.9731    1.1623 C.2       1 <0>        -0.1296
     16 C16        -1.3406   -1.6534    1.2500 C.2       1 <0>        -0.0947
     17 C17        -1.6795   -1.1422    2.5723 C.ar      1 <0>        -0.0861
     18 C18        -2.0008    0.2008    2.8950 C.ar      1 <0>        -0.0561
     19 C19        -2.2944    0.4842    4.1993 C.ar      1 <0>        -0.1486
     20 C20        -2.2907   -0.4722    5.2079 C.ar      1 <0>         0.1290
     21 C21        -1.9787   -1.8022    4.9334 C.ar      1 <0>        -0.0972
     22 C22        -1.6812   -2.0968    3.6204 C.ar      1 <0>        -0.1065
     23 S1         -1.2343   -3.6010    2.8135 S.3       1 <0>         0.0662
     24 O1         -2.5953   -0.1046    6.4808 O.3       1 <0>        -0.4968
     25 O2         -1.6902   -3.6556   -4.8233 O.3       1 <0>        -0.4960
     26 C23         3.6720    2.1819   -0.0222 C.3       1 <0>         0.1609
     27 C24         4.2524    2.2211    1.3929 C.3       1 <0>        -0.1800
     28 C25         5.4994    3.1074    1.4083 C.3       1 <0>        -0.0072
     29 N1          6.0567    3.1450    2.7670 N.4       1 <0>        -0.3828
     30 C26         5.0979    3.7934    3.6696 C.3       1 <0>        -0.0127
     31 C27         5.6382    3.7629    5.1010 C.3       1 <0>        -0.1460
     32 C28         6.9748    4.5085    5.1523 C.3       1 <0>        -0.1394
     33 C29         7.9432    3.8697    4.1526 C.3       1 <0>        -0.1464
     34 C30         7.3176    3.8963    2.7565 C.3       1 <0>        -0.0066
     35 O3          4.6007    1.5430   -0.9005 O.3       1 <0>        -0.5497
     36 H1         -0.9591    1.9053    0.0259 H         1 <0>         0.1278
     37 H2          1.1563    3.1654    0.0076 H         1 <0>         0.1253
     38 H3          3.3385   -0.4987   -0.0326 H         1 <0>         0.1186
     39 H4          1.2231   -1.7588   -0.0179 H         1 <0>         0.1236
     40 H5         -2.1260   -0.0732    0.0381 H         1 <0>         0.0998
     41 H6         -1.9971    0.1161   -2.3746 H         1 <0>         0.1268
     42 H7         -2.1827   -1.0979   -4.4967 H         1 <0>         0.1330
     43 H8         -0.9830   -4.6893   -2.5265 H         1 <0>         0.1339
     44 H9         -1.1965   -4.6920   -0.0712 H         1 <0>         0.1020
     45 H10         0.3868   -3.8825   -0.0897 H         1 <0>         0.1023
     46 H11        -2.0126    0.9712    2.1382 H         1 <0>         0.1345
     47 H12        -2.5416    1.5028    4.4595 H         1 <0>         0.1297
     48 H13        -1.9702   -2.5581    5.7047 H         1 <0>         0.1479
     49 H14        -3.5367   -0.1659    6.6933 H         1 <0>         0.3979
     50 H15        -0.8731   -3.6674   -5.3404 H         1 <0>         0.3944
     51 H16         3.4865    3.1991   -0.3672 H         1 <0>         0.1165
     52 H17         3.5094    2.6273    2.0792 H         1 <0>         0.0993
     53 H18         4.5204    1.2113    1.7037 H         1 <0>         0.0915
     54 H19         6.2424    2.7011    0.7220 H         1 <0>         0.1376
     55 H20         5.2314    4.1171    1.0975 H         1 <0>         0.1306
     56 H21         4.9501    4.8279    3.3596 H         1 <0>         0.1287
     57 H22         4.1462    3.2635    3.6296 H         1 <0>         0.1299
     58 H23         4.9258    4.2464    5.7693 H         1 <0>         0.1118
     59 H24         5.7862    2.7287    5.4122 H         1 <0>         0.0870
     60 H25         6.8186    5.5551    4.8906 H         1 <0>         0.0818
     61 H26         7.3914    4.4412    6.1573 H         1 <0>         0.0942
     62 H27         8.8784    4.4296    4.1432 H         1 <0>         0.1124
     63 H28         8.1390    2.8378    4.4441 H         1 <0>         0.0871
     64 H29         8.0045    3.4424    2.0422 H         1 <0>         0.1303
     65 H30         7.1224    4.9286    2.4659 H         1 <0>         0.1283
     66 H31         4.8128    0.6324   -0.6538 H         1 <0>         0.3796
     67 H32         6.2303    2.2030    3.0844 H         1 <0>         0.4213
@<TRIPOS>BOND
     1    1    6 ar
     2    1    2 ar
     3    1   36 1
     4    2    3 ar
     5    2   37 1
     6    3    4 ar
     7    3   26 1
     8    4    5 ar
     9    4   38 1
    10    5    6 ar
    11    5   39 1
    12    6    7 1
    13    7   16 1
    14    7    8 1
    15    7   40 1
    16    8   13 ar
    17    8    9 ar
    18    9   10 ar
    19    9   41 1
    20   10   11 ar
    21   10   42 1
    22   11   12 ar
    23   11   25 1
    24   12   13 ar
    25   12   43 1
    26   13   14 1
    27   14   15 1
    28   14   44 1
    29   14   45 1
    30   15   23 1
    31   15   16 2
    32   16   17 1
    33   17   22 ar
    34   17   18 ar
    35   18   19 ar
    36   18   46 1
    37   19   20 ar
    38   19   47 1
    39   20   21 ar
    40   20   24 1
    41   21   22 ar
    42   21   48 1
    43   22   23 1
    44   24   49 1
    45   25   50 1
    46   26   27 1
    47   26   35 1
    48   26   51 1
    49   27   28 1
    50   27   52 1
    51   27   53 1
    52   28   29 1
    53   28   54 1
    54   28   55 1
    55   29   34 1
    56   29   30 1
    57   29   67 1
    58   30   31 1
    59   30   56 1
    60   30   57 1
    61   31   32 1
    62   31   58 1
    63   31   59 1
    64   32   33 1
    65   32   60 1
    66   32   61 1
    67   33   34 1
    68   33   62 1
    69   33   63 1
    70   34   64 1
    71   34   65 1
    72   35   66 1
@<TRIPOS>MOLECULE
CHEMBL80124
   36    39     0     0     0
SMALL
USER_CHARGES

@<TRIPOS>ATOM
      1 C1         -0.0187    1.5258    0.0104 C.3       1 <0>        -0.1508
      2 C2          0.0021   -0.0041    0.0020 C.3       1 <0>        -0.0628
      3 C3         -1.4117   -0.5257    0.0127 C.ar      1 <0>        -0.0835
      4 C4         -2.2182   -0.8269    1.2067 C.ar      1 <0>         0.1088
      5 C5         -2.0805   -0.7805    2.5144 C.ar      1 <0>        -0.1098
      6 C6         -3.2043   -1.1977    3.3799 C.ar      1 <0>        -0.1410
      7 C7         -4.3553   -1.6207    2.8712 C.ar      1 <0>         0.1399
      8 C8         -4.4619   -1.6549    1.3993 C.ar      1 <0>         0.0719
      9 N1         -3.3842   -1.2551    0.7400 N.pl3     1 <0>        -0.3913
     10 C9         -3.4681   -1.2816   -0.5855 C.ar      1 <0>         0.0290
     11 C10        -2.1600   -0.7922   -1.0566 C.ar      1 <0>         0.0021
     12 C11        -1.7513   -0.6290   -2.4623 C.ar      1 <0>        -0.0436
     13 C12        -1.4762    0.6316   -2.9591 C.ar      1 <0>        -0.0815
     14 C13        -1.0932    0.7874   -4.2772 C.ar      1 <0>        -0.1440
     15 C14        -0.9841   -0.3225   -5.1025 C.ar      1 <0>         0.1144
     16 C15        -1.2602   -1.5863   -4.6014 C.ar      1 <0>        -0.1433
     17 C16        -1.6379   -1.7373   -3.2811 C.ar      1 <0>        -0.0790
     18 O1         -0.6079   -0.1718   -6.3996 O.3       1 <0>        -0.4987
     19 C17        -4.6819   -1.7280   -0.8366 C.ar      1 <0>        -0.1188
     20 C18        -5.3380   -1.9745    0.4779 C.ar      1 <0>        -0.1956
     21 O2         -5.3892   -2.0054    3.6700 O.3       1 <0>        -0.4782
     22 H1          1.0039    1.9031    0.0027 H         1 <0>         0.0649
     23 H2         -0.5459    1.8868   -0.8726 H         1 <0>         0.0587
     24 H3         -0.5289    1.8773    0.9072 H         1 <0>         0.0571
     25 H4          0.5123   -0.3556   -0.8948 H         1 <0>         0.0823
     26 H5          0.5293   -0.3651    0.8851 H         1 <0>         0.0793
     27 H6         -1.1536   -0.4407    2.9522 H         1 <0>         0.1494
     28 H7         -3.0857   -1.1577    4.4526 H         1 <0>         0.1450
     29 H8         -1.5613    1.4953   -2.3163 H         1 <0>         0.1303
     30 H9         -0.8791    1.7723   -4.6651 H         1 <0>         0.1334
     31 H10        -1.1760   -2.4519   -5.2418 H         1 <0>         0.1335
     32 H11        -1.8487   -2.7214   -2.8894 H         1 <0>         0.1294
     33 H12         0.3477   -0.2197   -6.5401 H         1 <0>         0.3935
     34 H13        -5.1189   -1.8854   -1.8116 H         1 <0>         0.1492
     35 H14        -6.3394   -2.3449    0.6401 H         1 <0>         0.1526
     36 H15        -5.9937   -1.2878    3.9038 H         1 <0>         0.3970
@<TRIPOS>BOND
     1    1    2 1
     2    1   22 1
     3    1   23 1
     4    1   24 1
     5    2    3 1
     6    2   25 1
     7    2   26 1
     8    3   11 ar
     9    3    4 ar
    10    4    9 1
    11    4    5 ar
    12    5    6 ar
    13    5   27 1
    14    6    7 ar
    15    6   28 1
    16    7    8 ar
    17    7   21 1
    18    8   20 ar
    19    8    9 1
    20    9   10 1
    21   10   11 ar
    22   10   19 ar
    23   11   12 1
    24   12   17 ar
    25   12   13 ar
    26   13   14 ar
    27   13   29 1
    28   14   15 ar
    29   14   30 1
    30   15   16 ar
    31   15   18 1
    32   16   17 ar
    33   16   31 1
    34   17   32 1
    35   18   33 1
    36   19   20 ar
    37   19   34 1
    38   20   35 1
    39   21   36 1
@<TRIPOS>MOLECULE
CHEMBL400480
   52    55     0     0     0
SMALL
USER_CHARGES

@<TRIPOS>ATOM
      1 C1          1.0127    2.0600    0.7323 C.3       1 <0>        -0.1339
      2 C2          1.3888    0.5782    0.7932 C.3       1 <0>        -0.0571
      3 C3          0.1817   -0.2729    0.4483 C.3       1 <0>        -0.1025
      4 C4         -0.9553    0.1454    1.3942 C.3       1 <0>        -0.1212
      5 C5         -0.5564   -0.0136    2.8582 C.3       1 <0>        -0.0606
      6 H1         -0.4110   -1.0711    3.0785 H         1 <0>         0.0698
      7 C6          0.7379    0.7539    3.1776 C.3       1 <0>        -0.0735
      8 H2          0.5841    1.8192    3.0059 H         1 <0>         0.0883
      9 C7          1.8167    0.2028    2.2374 C.3       1 <0>        -0.0833
     10 H3          1.9060   -0.8787    2.3395 H         1 <0>         0.0763
     11 C8          3.1882    0.8793    2.3399 C.3       1 <0>        -0.1133
     12 C9          3.8277    0.5807    0.9564 C.3       1 <0>        -0.1571
     13 C10         2.6537    0.3319   -0.0230 C.3       1 <0>         0.1102
     14 H4          2.6753   -0.6959   -0.3853 H         1 <0>         0.0565
     15 O1          2.7213    1.2460   -1.1194 O.3       1 <0>        -0.5599
     16 C11         1.1356    0.5206    4.6354 C.3       1 <0>        -0.1094
     17 C12         0.0564    1.0815    5.5690 C.3       1 <0>        -0.0988
     18 C13        -1.2661    0.4427    5.1796 C.2       1 <0>        -0.0832
     19 C14        -1.9824   -0.1618    6.1156 C.2       1 <0>        -0.1330
     20 C15        -3.2488   -0.8220    5.7334 C.2       1 <0>        -0.0915
     21 C16        -4.2362   -1.0089    6.6026 C.2       1 <0>        -0.1863
     22 C17        -3.3527   -1.2739    4.2884 C.3       1 <0>        -0.0839
     23 C18        -3.0154   -0.0731    3.4053 C.3       1 <0>        -0.1085
     24 C19        -1.6648    0.5405    3.7544 C.3       1 <0>         0.0158
     25 C20        -1.7662    2.0115    3.4432 C.2       1 <0>        -0.1467
     26 C21        -1.7399    2.8899    4.4147 C.2       1 <0>        -0.1981
     27 H5          1.8717    2.6651    1.0222 H         1 <0>         0.0533
     28 H6          0.7132    2.3174   -0.2837 H         1 <0>         0.0584
     29 H7          0.1851    2.2531    1.4149 H         1 <0>         0.0616
     30 H8         -0.1127   -0.0974   -0.5864 H         1 <0>         0.0661
     31 H9          0.4170   -1.3272    0.5944 H         1 <0>         0.0621
     32 H10        -1.2090    1.1886    1.2059 H         1 <0>         0.0718
     33 H11        -1.8300   -0.4737    1.1946 H         1 <0>         0.0665
     34 H12         3.0782    1.9533    2.4901 H         1 <0>         0.0702
     35 H13         3.7783    0.4351    3.1415 H         1 <0>         0.0653
     36 H14         4.4172    1.4353    0.6245 H         1 <0>         0.0720
     37 H15         4.4572   -0.3070    1.0190 H         1 <0>         0.0663
     38 H16         3.5054    1.1368   -1.6747 H         1 <0>         0.3746
     39 H17         1.2475   -0.5489    4.8132 H         1 <0>         0.0604
     40 H18         2.0832    1.0204    4.8363 H         1 <0>         0.0651
     41 H19         0.2966    0.8335    6.6029 H         1 <0>         0.0682
     42 H20        -0.0072    2.1635    5.4527 H         1 <0>         0.0854
     43 H21        -1.6464   -0.1725    7.1419 H         1 <0>         0.1180
     44 H22        -4.1272   -0.6745    7.6237 H         1 <0>         0.0992
     45 H23        -5.1477   -1.4953    6.2881 H         1 <0>         0.1008
     46 H24        -2.6447   -2.0813    4.1013 H         1 <0>         0.0736
     47 H25        -4.3669   -1.6140    4.0790 H         1 <0>         0.0716
     48 H26        -3.0043   -0.3934    2.3635 H         1 <0>         0.0776
     49 H27        -3.7881    0.6853    3.5310 H         1 <0>         0.0652
     50 H28        -1.8607    2.3415    2.4192 H         1 <0>         0.1115
     51 H29        -1.7469    2.5585    5.4426 H         1 <0>         0.1054
     52 H30        -1.7111    3.9454    4.1877 H         1 <0>         0.0950
@<TRIPOS>BOND
     1    1    2 1
     2    1   27 1
     3    1   28 1
     4    1   29 1
     5    2    9 1
     6    2   13 1
     7    2    3 1
     8    3    4 1
     9    3   30 1
    10    3   31 1
    11    4    5 1
    12    4   32 1
    13    4   33 1
    14    5    6 1
    15    5   24 1
    16    5    7 1
    17    7    8 1
    18    7    9 1
    19    7   16 1
    20    9   10 1
    21    9   11 1
    22   11   12 1
    23   11   34 1
    24   11   35 1
    25   12   13 1
    26   12   36 1
    27   12   37 1
    28   13   14 1
    29   13   15 1
    30   15   38 1
    31   16   17 1
    32   16   39 1
    33   16   40 1
    34   17   18 1
    35   17   41 1
    36   17   42 1
    37   18   24 1
    38   18   19 2
    39   19   20 1
    40   19   43 1
    41   20   21 2
    42   20   22 1
    43   21   44 1
    44   21   45 1
    45   22   23 1
    46   22   46 1
    47   22   47 1
    48   23   24 1
    49   23   48 1
    50   23   49 1
    51   24   25 1
    52   25   26 2
    53   25   50 1
    54   26   51 1
    55   26   52 1
@<TRIPOS>MOLECULE
CHEMBL121879
   61    65     0     0     0
SMALL
USER_CHARGES

@<TRIPOS>ATOM
      1 C1         -1.1285   -8.5313   -0.4553 C.3       1 <0>        -0.0547
      2 N1         -0.8118   -7.1188   -0.2053 N.4       1 <0>        -0.3650
      3 C2          0.4332   -7.0534    0.5569 C.3       1 <0>        -0.0060
      4 C3          1.1525   -5.7639    0.2284 C.3       1 <0>        -0.1594
      5 C4          0.7633   -4.6843    1.2547 C.3       1 <0>         0.1082
      6 N2         -0.6735   -4.7615    1.5876 N.pl3     1 <0>        -0.6365
      7 C5         -1.6905   -4.9959    0.5832 C.3       1 <0>         0.1088
      8 C6         -1.9255   -6.5163    0.4207 C.3       1 <0>        -0.0547
      9 C7         -1.0658   -4.6022    2.9186 C.ar      1 <0>         0.1985
     10 C8         -0.1307   -4.2454    3.8820 C.ar      1 <0>        -0.1847
     11 C9         -0.5220   -4.0883    5.1971 C.ar      1 <0>        -0.0512
     12 C10        -1.8429   -4.2861    5.5554 C.ar      1 <0>        -0.1204
     13 C11        -2.7763   -4.6414    4.5989 C.ar      1 <0>        -0.0285
     14 C12        -2.3929   -4.7946    3.2810 C.ar      1 <0>        -0.1944
     15 C13        -2.2660   -4.1147    6.9916 C.3       1 <0>         0.1518
     16 H1         -1.3933   -4.1902    7.6402 H         1 <0>         0.0936
     17 C14        -2.9239   -2.7366    7.1729 C.3       1 <0>        -0.0649
     18 H2         -2.2523   -1.9544    6.8192 H         1 <0>         0.1389
     19 S1         -3.2377   -2.5274    8.9539 S.3       1 <0>        -0.0827
     20 C15        -3.8764   -4.1069    9.4209 C.ar      1 <0>        -0.1479
     21 C16        -4.4946   -4.2458   10.6565 C.ar      1 <0>        -0.0894
     22 C17        -4.9962   -5.4760   11.0494 C.ar      1 <0>         0.0983
     23 C18        -4.8749   -6.5682   10.2028 C.ar      1 <0>        -0.1077
     24 C19        -4.2637   -6.4300    8.9737 C.ar      1 <0>        -0.1158
     25 C20        -3.7614   -5.1967    8.5652 C.ar      1 <0>         0.1209
     26 O1         -3.2014   -5.1257    7.3348 O.3       1 <0>        -0.3062
     27 O2         -5.6037   -5.6122   12.2583 O.3       1 <0>        -0.4919
     28 C21        -4.2226   -2.6824    6.4103 C.ar      1 <0>        -0.0855
     29 C22        -4.2956   -1.9817    5.2206 C.ar      1 <0>        -0.0814
     30 C23        -5.4850   -1.9302    4.5199 C.ar      1 <0>        -0.1455
     31 C24        -6.6067   -2.5825    5.0106 C.ar      1 <0>         0.1130
     32 C25        -6.5307   -3.2852    6.2044 C.ar      1 <0>        -0.1406
     33 C26        -5.3376   -3.3381    6.8987 C.ar      1 <0>        -0.0885
     34 O3         -7.7781   -2.5329    4.3234 O.3       1 <0>        -0.4966
     35 H3         -2.0022   -8.5986   -1.1035 H         1 <0>         0.1249
     36 H4         -0.2793   -9.0140   -0.9389 H         1 <0>         0.1254
     37 H5         -1.3390   -9.0294    0.4911 H         1 <0>         0.1222
     38 H6          0.2091   -7.0837    1.6231 H         1 <0>         0.1318
     39 H7          1.0662   -7.9006    0.2932 H         1 <0>         0.1345
     40 H8          2.2293   -5.9289    0.2652 H         1 <0>         0.1233
     41 H9          0.8692   -5.4341   -0.7711 H         1 <0>         0.0881
     42 H10         1.3491   -4.8264    2.1629 H         1 <0>         0.0992
     43 H11         0.9819   -3.7006    0.8393 H         1 <0>         0.0801
     44 H12        -2.6199   -4.5160    0.8898 H         1 <0>         0.1194
     45 H13        -1.3637   -4.5760   -0.3681 H         1 <0>         0.0953
     46 H14        -2.8146   -6.6810   -0.1880 H         1 <0>         0.1409
     47 H15        -2.0747   -6.9657    1.4025 H         1 <0>         0.1309
     48 H16         0.9012   -4.0914    3.6029 H         1 <0>         0.1296
     49 H17         0.2044   -3.8109    5.9465 H         1 <0>         0.1309
     50 H18        -3.8071   -4.7952    4.8821 H         1 <0>         0.1293
     51 H19        -3.1232   -5.0677    2.5337 H         1 <0>         0.1216
     52 H20        -4.5849   -3.3928   11.3127 H         1 <0>         0.1406
     53 H21        -5.2606   -7.5301   10.5068 H         1 <0>         0.1419
     54 H22        -4.1737   -7.2865    8.3220 H         1 <0>         0.1393
     55 H23        -6.5572   -5.4521   12.2396 H         1 <0>         0.3947
     56 H24        -3.4221   -1.4741    4.8390 H         1 <0>         0.1249
     57 H25        -5.5417   -1.3821    3.5910 H         1 <0>         0.1296
     58 H26        -7.4026   -3.7938    6.5885 H         1 <0>         0.1300
     59 H27        -5.2768   -3.8887    7.8258 H         1 <0>         0.1314
     60 H28        -7.8876   -3.2470    3.6807 H         1 <0>         0.3904
     61 H29        -0.6623   -6.6654   -1.0942 H         1 <0>         0.4181
@<TRIPOS>BOND
     1    1    2 1
     2    1   35 1
     3    1   36 1
     4    1   37 1
     5    2    8 1
     6    2    3 1
     7    2   61 1
     8    3    4 1
     9    3   38 1
    10    3   39 1
    11    4    5 1
    12    4   40 1
    13    4   41 1
    14    5    6 1
    15    5   42 1
    16    5   43 1
    17    6    7 1
    18    6    9 1
    19    7    8 1
    20    7   44 1
    21    7   45 1
    22    8   46 1
    23    8   47 1
    24    9   14 ar
    25    9   10 ar
    26   10   11 ar
    27   10   48 1
    28   11   12 ar
    29   11   49 1
    30   12   13 ar
    31   12   15 1
    32   13   14 ar
    33   13   50 1
    34   14   51 1
    35   15   16 1
    36   15   26 1
    37   15   17 1
    38   17   18 1
    39   17   19 1
    40   17   28 1
    41   19   20 1
    42   20   25 ar
    43   20   21 ar
    44   21   22 ar
    45   21   52 1
    46   22   23 ar
    47   22   27 1
    48   23   24 ar
    49   23   53 1
    50   24   25 ar
    51   24   54 1
    52   25   26 1
    53   27   55 1
    54   28   33 ar
    55   28   29 ar
    56   29   30 ar
    57   29   56 1
    58   30   31 ar
    59   30   57 1
    60   31   32 ar
    61   31   34 1
    62   32   33 ar
    63   32   58 1
    64   33   59 1
    65   34   60 1
@<TRIPOS>MOLECULE
CHEMBL181191
   42    44     0     0     0
SMALL
USER_CHARGES

@<TRIPOS>ATOM
      1 C1          0.4116    1.3364   -0.5639 C.3       1 <0>        -0.1228
      2 C2          0.4481   -0.1644   -0.4331 C.2       1 <0>        -0.1094
      3 C3          0.7088   -0.8685   -1.4868 C.2       1 <0>        -0.1476
      4 C4          0.7560   -2.3658   -1.5234 C.3       1 <0>        -0.1124
      5 C5          0.7286   -2.9557   -0.1184 C.3       1 <0>         0.1177
      6 C6         -0.3154   -2.2144    0.7230 C.3       1 <0>        -0.1471
      7 C7          0.1852   -0.7735    0.9203 C.3       1 <0>        -0.0726
      8 H1         -0.5457   -0.1842    1.4739 H         1 <0>         0.0968
      9 C8          1.5303   -0.8426    1.6658 C.3       1 <0>         0.1349
     10 H2          1.4061   -1.3866    2.6021 H         1 <0>         0.0823
     11 O1          2.4608   -1.5318    0.8241 O.3       1 <0>        -0.3504
     12 C9          2.0973   -2.8822    0.5444 C.3       1 <0>         0.1352
     13 C10         3.1425   -3.4899   -0.3932 C.3       1 <0>        -0.1400
     14 C11         2.0676   -3.6831    1.8477 C.3       1 <0>        -0.1741
     15 C12         2.0300    0.5510    1.9476 C.ar      1 <0>        -0.0564
     16 C13         1.5791    1.2335    3.0622 C.ar      1 <0>        -0.1057
     17 C14         2.0347    2.5115    3.3235 C.ar      1 <0>        -0.1161
     18 C15         2.9459    3.1107    2.4670 C.ar      1 <0>         0.0753
     19 C16         3.3984    2.4237    1.3477 C.ar      1 <0>         0.0703
     20 C17         2.9428    1.1424    1.0940 C.ar      1 <0>        -0.1067
     21 F1          4.2862    3.0040    0.5109 F         1 <0>        -0.1317
     22 O2          3.3951    4.3682    2.7220 O.3       1 <0>        -0.4885
     23 O3          0.3332   -4.3262   -0.2040 O.3       1 <0>        -0.5542
     24 H3          1.4221    1.7341   -0.4695 H         1 <0>         0.0693
     25 H4          0.0044    1.6064   -1.5383 H         1 <0>         0.0614
     26 H5         -0.2182    1.7544    0.2215 H         1 <0>         0.0602
     27 H6          0.9064   -0.3386   -2.4069 H         1 <0>         0.1054
     28 H7         -0.1030   -2.7363   -2.0827 H         1 <0>         0.0768
     29 H8          1.6705   -2.6818   -2.0253 H         1 <0>         0.0872
     30 H9         -1.2730   -2.2083    0.2023 H         1 <0>         0.0768
     31 H10        -0.4238   -2.7028    1.6915 H         1 <0>         0.0797
     32 H11         3.2484   -2.8599   -1.2763 H         1 <0>         0.0661
     33 H12         4.1000   -3.5551    0.1236 H         1 <0>         0.0642
     34 H13         2.8237   -4.4877   -0.6948 H         1 <0>         0.0801
     35 H14         1.8216   -4.7224    1.6299 H         1 <0>         0.0796
     36 H15         3.0455   -3.6339    2.3267 H         1 <0>         0.0636
     37 H16         1.3147   -3.2636    2.5149 H         1 <0>         0.0568
     38 H17         0.8694    0.7671    3.7295 H         1 <0>         0.1349
     39 H18         1.6811    3.0437    4.1942 H         1 <0>         0.1415
     40 H19         3.2971    0.6054    0.2266 H         1 <0>         0.1469
     41 H20         4.1910    4.3979    3.2705 H         1 <0>         0.3938
     42 H21        -0.5416   -4.4596   -0.5939 H         1 <0>         0.3789
@<TRIPOS>BOND
     1    1    2 1
     2    1   24 1
     3    1   25 1
     4    1   26 1
     5    2    7 1
     6    2    3 2
     7    3    4 1
     8    3   27 1
     9    4    5 1
    10    4   28 1
    11    4   29 1
    12    5   12 1
    13    5    6 1
    14    5   23 1
    15    6    7 1
    16    6   30 1
    17    6   31 1
    18    7    8 1
    19    7    9 1
    20    9   10 1
    21    9   11 1
    22    9   15 1
    23   11   12 1
    24   12   13 1
    25   12   14 1
    26   13   32 1
    27   13   33 1
    28   13   34 1
    29   14   35 1
    30   14   36 1
    31   14   37 1
    32   15   20 ar
    33   15   16 ar
    34   16   17 ar
    35   16   38 1
    36   17   18 ar
    37   17   39 1
    38   18   19 ar
    39   18   22 1
    40   19   20 ar
    41   19   21 1
    42   20   40 1
    43   22   41 1
    44   23   42 1
@<TRIPOS>MOLECULE
CHEMBL316132
   71    75     0     0     0
SMALL
USER_CHARGES

@<TRIPOS>ATOM
      1 C1          0.0368    1.4945   -1.3565 C.ar      1 <0>        -0.0608
      2 C2          1.2267    2.1302   -1.0591 C.ar      1 <0>        -0.1388
      3 C3          2.3908    1.3893   -0.9163 C.ar      1 <0>         0.1215
      4 C4          2.3568    0.0112   -1.0726 C.ar      1 <0>        -0.2032
      5 C5          1.1644   -0.6198   -1.3700 C.ar      1 <0>        -0.0467
      6 C6          0.0056    0.1209   -1.5119 C.ar      1 <0>        -0.1000
      7 C7         -1.2939   -0.5701   -1.8359 C.3       1 <0>         0.1438
      8 H1         -2.1258    0.0169   -1.4467 H         1 <0>         0.0928
      9 C8         -1.4342   -0.7130   -3.3606 C.3       1 <0>        -0.1054
     10 H2         -1.3272    0.2616   -3.8369 H         1 <0>         0.1305
     11 S1         -3.0967   -1.3819   -3.6813 S.3       1 <0>        -0.0892
     12 C9         -3.2485   -2.6422   -2.4527 C.ar      1 <0>        -0.1354
     13 C10        -4.2786   -3.5673   -2.5594 C.ar      1 <0>        -0.0925
     14 C11        -4.4240   -4.5602   -1.6042 C.ar      1 <0>         0.0992
     15 C12        -3.5368   -4.6231   -0.5397 C.ar      1 <0>        -0.1099
     16 C13        -2.5118   -3.7057   -0.4345 C.ar      1 <0>        -0.1163
     17 C14        -2.3511   -2.7076   -1.3927 C.ar      1 <0>         0.1251
     18 O1         -1.3057   -1.8604   -1.2445 O.3       1 <0>        -0.3089
     19 O2         -5.4312   -5.4678   -1.7093 O.3       1 <0>        -0.4927
     20 C15        -0.3706   -1.6743   -3.8949 C.3       1 <0>        -0.0627
     21 C16        -0.3309   -1.5703   -5.4333 C.3       1 <0>        -0.1131
     22 C17         0.9976   -2.0891   -5.9132 C.3       1 <0>        -0.1140
     23 C18         0.9432   -3.5791   -6.3012 C.3       1 <0>        -0.1173
     24 C19         0.1202   -4.4247   -5.3106 C.3       1 <0>        -0.1208
     25 C20         0.3820   -4.0495   -3.8771 C.3       1 <0>        -0.1054
     26 C21        -0.6802   -3.0210   -3.4377 C.3       1 <0>        -0.1762
     27 O3          3.5627    2.0125   -0.6242 O.3       1 <0>        -0.3266
     28 C22         4.7212    1.1865   -0.4916 C.3       1 <0>         0.0251
     29 C23         5.9348    2.0589   -0.1645 C.3       1 <0>        -0.0012
     30 N1          5.7565    2.6691    1.1598 N.4       1 <0>        -0.3843
     31 C24         6.8410    3.6272    1.4055 C.3       1 <0>        -0.0070
     32 C25         6.6159    4.3249    2.7486 C.3       1 <0>        -0.1467
     33 C26         6.5959    3.2769    3.8650 C.3       1 <0>        -0.1391
     34 C27         5.5101    2.2410    3.5599 C.3       1 <0>        -0.1454
     35 C28         5.7762    1.6205    2.1867 C.3       1 <0>        -0.0136
     36 H3         -0.8706    2.0703   -1.4634 H         1 <0>         0.1395
     37 H4          1.2506    3.2032   -0.9382 H         1 <0>         0.1376
     38 H5          3.2618   -0.5677   -0.9623 H         1 <0>         0.1297
     39 H6          1.1374   -1.6925   -1.4918 H         1 <0>         0.1381
     40 H7         -4.9678   -3.5129   -3.3891 H         1 <0>         0.1388
     41 H8         -3.6490   -5.3928    0.2096 H         1 <0>         0.1406
     42 H9         -1.8269   -3.7623    0.3986 H         1 <0>         0.1384
     43 H10        -5.1956   -6.2604   -2.2106 H         1 <0>         0.3941
     44 H11         0.6011   -1.3813   -3.4975 H         1 <0>         0.0805
     45 H12        -1.1344   -2.1694   -5.8617 H         1 <0>         0.0760
     46 H13        -0.4471   -0.5288   -5.7329 H         1 <0>         0.0609
     47 H14         1.3095   -1.5095   -6.7820 H         1 <0>         0.0588
     48 H15         1.7346   -1.9577   -5.1209 H         1 <0>         0.0555
     49 H16         0.4992   -3.6681   -7.2927 H         1 <0>         0.0596
     50 H17         1.9599   -3.9703   -6.3372 H         1 <0>         0.0568
     51 H18        -0.9397   -4.2853   -5.5237 H         1 <0>         0.0617
     52 H19         0.3709   -5.4761   -5.4514 H         1 <0>         0.0569
     53 H20         0.3144   -4.9371   -3.2481 H         1 <0>         0.0597
     54 H21         1.3756   -3.6100   -3.7893 H         1 <0>         0.0587
     55 H22        -0.7408   -3.0191   -2.3494 H         1 <0>         0.1022
     56 H23        -1.6476   -3.3176   -3.8428 H         1 <0>         0.0757
     57 H24         4.5642    0.4665    0.3116 H         1 <0>         0.0869
     58 H25         4.8974    0.6549   -1.4268 H         1 <0>         0.1099
     59 H26         6.8347    1.4437   -0.1629 H         1 <0>         0.1494
     60 H27         6.0319    2.8428   -0.9156 H         1 <0>         0.1431
     61 H28         7.7942    3.0989    1.4263 H         1 <0>         0.1293
     62 H29         6.8560    4.3705    0.6084 H         1 <0>         0.1311
     63 H30         7.4231    5.0346    2.9299 H         1 <0>         0.1132
     64 H31         5.6630    4.8538    2.7288 H         1 <0>         0.0880
     65 H32         7.5661    2.7830    3.9187 H         1 <0>         0.0822
     66 H33         6.3795    3.7622    4.8167 H         1 <0>         0.0949
     67 H34         5.5269    1.4610    4.3212 H         1 <0>         0.1125
     68 H35         4.5343    2.7266    3.5569 H         1 <0>         0.0879
     69 H36         5.0051    0.8823    1.9665 H         1 <0>         0.1273
     70 H37         6.7521    1.1349    2.1909 H         1 <0>         0.1305
     71 H38         4.8709    3.1516    1.1902 H         1 <0>         0.4291
@<TRIPOS>BOND
     1    1    6 ar
     2    1    2 ar
     3    1   36 1
     4    2    3 ar
     5    2   37 1
     6    3    4 ar
     7    3   27 1
     8    4    5 ar
     9    4   38 1
    10    5    6 ar
    11    5   39 1
    12    6    7 1
    13    7    8 1
    14    7   18 1
    15    7    9 1
    16    9   10 1
    17    9   11 1
    18    9   20 1
    19   11   12 1
    20   12   17 ar
    21   12   13 ar
    22   13   14 ar
    23   13   40 1
    24   14   15 ar
    25   14   19 1
    26   15   16 ar
    27   15   41 1
    28   16   17 ar
    29   16   42 1
    30   17   18 1
    31   19   43 1
    32   20   26 1
    33   20   21 1
    34   20   44 1
    35   21   22 1
    36   21   45 1
    37   21   46 1
    38   22   23 1
    39   22   47 1
    40   22   48 1
    41   23   24 1
    42   23   49 1
    43   23   50 1
    44   24   25 1
    45   24   51 1
    46   24   52 1
    47   25   26 1
    48   25   53 1
    49   25   54 1
    50   26   55 1
    51   26   56 1
    52   27   28 1
    53   28   29 1
    54   28   57 1
    55   28   58 1
    56   29   30 1
    57   29   59 1
    58   29   60 1
    59   30   35 1
    60   30   31 1
    61   30   71 1
    62   31   32 1
    63   31   61 1
    64   31   62 1
    65   32   33 1
    66   32   63 1
    67   32   64 1
    68   33   34 1
    69   33   65 1
    70   33   66 1
    71   34   35 1
    72   34   67 1
    73   34   68 1
    74   35   69 1
    75   35   70 1
@<TRIPOS>MOLECULE
CHEMBL93826
   47    50     0     0     0
SMALL
USER_CHARGES

@<TRIPOS>ATOM
      1 C1         -0.0167    1.3781    0.0096 C.ar      1 <0>        -0.0838
      2 C2          1.1709    2.0855    0.0021 C.ar      1 <0>        -0.1132
      3 C3          2.3773    1.4107   -0.0130 C.ar      1 <0>        -0.0961
      4 C4          2.3960    0.0285   -0.0201 C.ar      1 <0>        -0.1590
      5 C5          1.2084   -0.6789   -0.0117 C.ar      1 <0>        -0.0938
      6 C6          0.0021   -0.0041    0.0020 C.ar      1 <0>        -0.1132
      7 C7          3.7112   -0.7071   -0.0376 C.3       1 <0>         0.0353
      8 N1          4.1530   -0.9531    1.3416 N.4       1 <0>        -0.3779
      9 C8          4.4448    0.3243    1.9984 C.3       1 <0>         0.0363
     10 C9          5.6273    0.9953    1.3505 C.ar      1 <0>        -0.1045
     11 C10         5.8121    2.3536    1.5567 C.ar      1 <0>        -0.1278
     12 C11         6.8884    3.0080    0.9804 C.ar      1 <0>         0.1320
     13 C12         7.7852    2.2991    0.1939 C.ar      1 <0>        -0.1237
     14 C13         7.5982    0.9475   -0.0097 C.ar      1 <0>        -0.0715
     15 C14         6.5191    0.2943    0.5662 C.ar      1 <0>        -0.0987
     16 C15         6.3487   -1.1817    0.3107 C.3       1 <0>        -0.0161
     17 C16         5.3734   -1.7741    1.3286 C.3       1 <0>        -0.0011
     18 C17         7.6837   -1.8695    0.4369 C.ar      1 <0>        -0.1117
     19 C18         8.3760   -1.8185    1.6326 C.ar      1 <0>        -0.0878
     20 C19         9.6002   -2.4477    1.7507 C.ar      1 <0>        -0.1414
     21 C20        10.1345   -3.1316    0.6684 C.ar      1 <0>         0.1277
     22 C21         9.4377   -3.1816   -0.5302 C.ar      1 <0>        -0.1406
     23 C22         8.2115   -2.5551   -0.6416 C.ar      1 <0>        -0.0858
     24 O1         11.3388   -3.7510    0.7819 O.3       1 <0>        -0.4970
     25 O2          7.0650    4.3400    1.1841 O.3       1 <0>        -0.4932
     26 H1         -0.9591    1.9053    0.0259 H         1 <0>         0.1358
     27 H2          1.1563    3.1654    0.0076 H         1 <0>         0.1357
     28 H3          3.3051    1.9634   -0.0196 H         1 <0>         0.1304
     29 H4          1.2231   -1.7588   -0.0176 H         1 <0>         0.1315
     30 H5         -0.9258   -0.5567    0.0082 H         1 <0>         0.1361
     31 H6          3.5884   -1.6586   -0.5549 H         1 <0>         0.1387
     32 H7          4.4573   -0.1052   -0.5563 H         1 <0>         0.1391
     33 H8          3.5745    0.9758    1.9200 H         1 <0>         0.1417
     34 H9          4.6653    0.1453    3.0507 H         1 <0>         0.1409
     35 H10         5.1136    2.9042    2.1693 H         1 <0>         0.1406
     36 H11         8.6266    2.8038   -0.2575 H         1 <0>         0.1422
     37 H12         8.2958    0.3952   -0.6218 H         1 <0>         0.1383
     38 H13         5.9581   -1.3326   -0.6957 H         1 <0>         0.1154
     39 H14         5.8292   -1.7680    2.3187 H         1 <0>         0.1364
     40 H15         5.1237   -2.7963    1.0442 H         1 <0>         0.1415
     41 H16         7.9596   -1.2860    2.4749 H         1 <0>         0.1245
     42 H17        10.1409   -2.4070    2.6847 H         1 <0>         0.1350
     43 H18         9.8516   -3.7133   -1.3742 H         1 <0>         0.1371
     44 H19         7.6666   -2.5975   -1.5730 H         1 <0>         0.1318
     45 H20        11.2824   -4.6687    1.0814 H         1 <0>         0.4000
     46 H21         7.6049    4.5513    1.9580 H         1 <0>         0.4032
     47 H22         3.4263   -1.4364    1.8479 H         1 <0>         0.4305
@<TRIPOS>BOND
     1    1    6 ar
     2    1    2 ar
     3    1   26 1
     4    2    3 ar
     5    2   27 1
     6    3    4 ar
     7    3   28 1
     8    4    5 ar
     9    4    7 1
    10    5    6 ar
    11    5   29 1
    12    6   30 1
    13    7    8 1
    14    7   31 1
    15    7   32 1
    16    8   17 1
    17    8    9 1
    18    8   47 1
    19    9   10 1
    20    9   33 1
    21    9   34 1
    22   10   15 ar
    23   10   11 ar
    24   11   12 ar
    25   11   35 1
    26   12   13 ar
    27   12   25 1
    28   13   14 ar
    29   13   36 1
    30   14   15 ar
    31   14   37 1
    32   15   16 1
    33   16   17 1
    34   16   18 1
    35   16   38 1
    36   17   39 1
    37   17   40 1
    38   18   23 ar
    39   18   19 ar
    40   19   20 ar
    41   19   41 1
    42   20   21 ar
    43   20   42 1
    44   21   22 ar
    45   21   24 1
    46   22   23 ar
    47   22   43 1
    48   23   44 1
    49   24   45 1
    50   25   46 1
@<TRIPOS>MOLECULE
CHEMBL93826__1
   46    49     0     0     0
SMALL
USER_CHARGES

@<TRIPOS>ATOM
      1 C1         -0.0167    1.3781    0.0096 C.ar      1 <0>        -0.0913
      2 C2          1.1709    2.0855    0.0021 C.ar      1 <0>        -0.1144
      3 C3          2.3773    1.4107   -0.0130 C.ar      1 <0>        -0.0876
      4 C4          2.3960    0.0285   -0.0201 C.ar      1 <0>        -0.1503
      5 C5          1.2084   -0.6789   -0.0117 C.ar      1 <0>        -0.0992
      6 C6          0.0021   -0.0041    0.0020 C.ar      1 <0>        -0.1209
      7 C7          3.7112   -0.7071   -0.0376 C.3       1 <0>         0.0358
      8 N1          4.1530   -0.9531    1.3416 N.4       1 <0>        -0.3734
      9 C8          4.4448    0.3243    1.9984 C.3       1 <0>         0.0407
     10 C9          5.6273    0.9953    1.3505 C.ar      1 <0>        -0.0688
     11 C10         5.8121    2.3536    1.5567 C.ar      1 <0>        -0.2491
     12 C11         6.8884    3.0080    0.9804 C.ar      1 <0>         0.2801
     13 C12         7.7852    2.2991    0.1939 C.ar      1 <0>        -0.2427
     14 C13         7.5982    0.9475   -0.0097 C.ar      1 <0>        -0.0409
     15 C14         6.5191    0.2943    0.5662 C.ar      1 <0>        -0.2497
     16 C15         6.3487   -1.1817    0.3107 C.3       1 <0>         0.0064
     17 C16         5.3734   -1.7741    1.3286 C.3       1 <0>         0.0042
     18 C17         7.6837   -1.8695    0.4369 C.ar      1 <0>        -0.0863
     19 C18         8.3760   -1.8185    1.6326 C.ar      1 <0>        -0.0837
     20 C19         9.6002   -2.4477    1.7507 C.ar      1 <0>        -0.1424
     21 C20        10.1345   -3.1316    0.6684 C.ar      1 <0>         0.1097
     22 C21         9.4377   -3.1816   -0.5302 C.ar      1 <0>        -0.1438
     23 C22         8.2115   -2.5551   -0.6416 C.ar      1 <0>        -0.0955
     24 O1         11.3388   -3.7510    0.7819 O.3       1 <0>        -0.4987
     25 O2          7.0650    4.3400    1.1841 O.3       1 <0>        -0.7053
     26 H1         -0.9591    1.9053    0.0259 H         1 <0>         0.1307
     27 H2          1.1563    3.1654    0.0076 H         1 <0>         0.1343
     28 H3          3.3051    1.9634   -0.0196 H         1 <0>         0.1407
     29 H4          1.2231   -1.7588   -0.0176 H         1 <0>         0.1274
     30 H5         -0.9258   -0.5567    0.0082 H         1 <0>         0.1304
     31 H6          3.5884   -1.6586   -0.5549 H         1 <0>         0.1289
     32 H7          4.4573   -0.1052   -0.5563 H         1 <0>         0.1495
     33 H8          3.5745    0.9758    1.9200 H         1 <0>         0.1280
     34 H9          4.6653    0.1453    3.0507 H         1 <0>         0.1253
     35 H10         5.1136    2.9042    2.1693 H         1 <0>         0.1026
     36 H11         8.6266    2.8038   -0.2575 H         1 <0>         0.1033
     37 H12         8.2958    0.3952   -0.6218 H         1 <0>         0.0995
     38 H13         5.9581   -1.3326   -0.6957 H         1 <0>         0.0897
     39 H14         5.8292   -1.7680    2.3187 H         1 <0>         0.1288
     40 H15         5.1237   -2.7963    1.0442 H         1 <0>         0.1254
     41 H16         7.9596   -1.2860    2.4749 H         1 <0>         0.1266
     42 H17        10.1409   -2.4070    2.6847 H         1 <0>         0.1299
     43 H18         9.8516   -3.7133   -1.3742 H         1 <0>         0.1299
     44 H19         7.6666   -2.5975   -1.5730 H         1 <0>         0.1270
     45 H20        11.2824   -4.6687    1.0814 H         1 <0>         0.3916
     46 H21         3.4263   -1.4364    1.8479 H         1 <0>         0.4175
@<TRIPOS>BOND
     1    1    6 ar
     2    1    2 ar
     3    1   26 1
     4    2    3 ar
     5    2   27 1
     6    3    4 ar
     7    3   28 1
     8    4    5 ar
     9    4    7 1
    10    5    6 ar
    11    5   29 1
    12    6   30 1
    13    7    8 1
    14    7   31 1
    15    7   32 1
    16    8   17 1
    17    8    9 1
    18    8   46 1
    19    9   10 1
    20    9   33 1
    21    9   34 1
    22   10   15 ar
    23   10   11 ar
    24   11   12 ar
    25   11   35 1
    26   12   13 ar
    27   12   25 1
    28   13   14 ar
    29   13   36 1
    30   14   15 ar
    31   14   37 1
    32   15   16 1
    33   16   17 1
    34   16   18 1
    35   16   38 1
    36   17   39 1
    37   17   40 1
    38   18   23 ar
    39   18   19 ar
    40   19   20 ar
    41   19   41 1
    42   20   21 ar
    43   20   42 1
    44   21   22 ar
    45   21   24 1
    46   22   23 ar
    47   22   43 1
    48   23   44 1
    49   24   45 1
@<TRIPOS>MOLECULE
CHEMBL93826__2
   46    49     0     0     0
SMALL
USER_CHARGES

@<TRIPOS>ATOM
      1 C1         -0.0167    1.3781    0.0096 C.ar      1 <0>        -0.1191
      2 C2          1.1709    2.0855    0.0021 C.ar      1 <0>        -0.1205
      3 C3          2.3773    1.4107   -0.0130 C.ar      1 <0>        -0.1144
      4 C4          2.3960    0.0285   -0.0201 C.ar      1 <0>        -0.0791
      5 C5          1.2084   -0.6789   -0.0117 C.ar      1 <0>        -0.0986
      6 C6          0.0021   -0.0041    0.0020 C.ar      1 <0>        -0.1207
      7 C7          3.7112   -0.7071   -0.0376 C.3       1 <0>         0.0851
      8 N1          4.1530   -0.9531    1.3416 N.3       1 <0>        -0.5155
      9 C8          4.4884    0.3039    2.0180 C.3       1 <0>         0.0822
     10 C9          5.7598    0.8829    1.4546 C.ar      1 <0>        -0.0911
     11 C10         6.0364    2.2206    1.6921 C.ar      1 <0>        -0.1417
     12 C11         7.1957    2.7939    1.1965 C.ar      1 <0>         0.1095
     13 C12         8.0839    2.0239    0.4593 C.ar      1 <0>        -0.1456
     14 C13         7.8050    0.6938    0.2234 C.ar      1 <0>        -0.0880
     15 C14         6.6423    0.1213    0.7183 C.ar      1 <0>        -0.0824
     16 C15         6.3769   -1.3331    0.4240 C.3       1 <0>        -0.0415
     17 C16         5.3036   -1.8700    1.3712 C.3       1 <0>         0.0606
     18 C17         7.6479   -2.1211    0.6101 C.ar      1 <0>        -0.0813
     19 C18         8.2733   -2.1413    1.8430 C.ar      1 <0>        -0.0897
     20 C19         9.4387   -2.8625    2.0160 C.ar      1 <0>        -0.1418
     21 C20         9.9814   -3.5673    0.9514 C.ar      1 <0>         0.1043
     22 C21         9.3517   -3.5459   -0.2846 C.ar      1 <0>        -0.1422
     23 C22         8.1837   -2.8273   -0.4511 C.ar      1 <0>        -0.0985
     24 O1         11.1280   -4.2772    1.1190 O.3       1 <0>        -0.5003
     25 O2          7.4621    4.1058    1.4309 O.3       1 <0>        -0.4993
     26 H1         -0.9591    1.9053    0.0259 H         1 <0>         0.1209
     27 H2          1.1563    3.1654    0.0076 H         1 <0>         0.1209
     28 H3          3.3051    1.9634   -0.0196 H         1 <0>         0.1179
     29 H4          1.2231   -1.7588   -0.0176 H         1 <0>         0.1223
     30 H5         -0.9258   -0.5567    0.0082 H         1 <0>         0.1219
     31 H6          3.5884   -1.6586   -0.5549 H         1 <0>         0.0851
     32 H7          4.4573   -0.1052   -0.5563 H         1 <0>         0.0522
     33 H8          3.6753    1.0163    1.8784 H         1 <0>         0.0957
     34 H9          4.6195    0.1158    3.0836 H         1 <0>         0.0923
     35 H10         5.3442    2.8187    2.2661 H         1 <0>         0.1291
     36 H11         8.9904    2.4645    0.0711 H         1 <0>         0.1284
     37 H12         8.4963    0.0941   -0.3501 H         1 <0>         0.1253
     38 H13         6.0357   -1.4375   -0.6059 H         1 <0>         0.0933
     39 H14         5.7029   -1.9240    2.3840 H         1 <0>         0.0844
     40 H15         4.9901   -2.8616    1.0449 H         1 <0>         0.0879
     41 H16         7.8504   -1.5924    2.6715 H         1 <0>         0.1241
     42 H17         9.9272   -2.8774    2.9791 H         1 <0>         0.1286
     43 H18         9.7723   -4.0937   -1.1149 H         1 <0>         0.1293
     44 H19         7.6908   -2.8138   -1.4119 H         1 <0>         0.1266
     45 H20        10.9868   -5.1928    1.3964 H         1 <0>         0.3918
     46 H21         7.9649    4.2663    2.2411 H         1 <0>         0.3917
@<TRIPOS>BOND
     1    1    6 ar
     2    1    2 ar
     3    1   26 1
     4    2    3 ar
     5    2   27 1
     6    3    4 ar
     7    3   28 1
     8    4    5 ar
     9    4    7 1
    10    5    6 ar
    11    5   29 1
    12    6   30 1
    13    7    8 1
    14    7   31 1
    15    7   32 1
    16    8   17 1
    17    8    9 1
    18    9   10 1
    19    9   33 1
    20    9   34 1
    21   10   15 ar
    22   10   11 ar
    23   11   12 ar
    24   11   35 1
    25   12   13 ar
    26   12   25 1
    27   13   14 ar
    28   13   36 1
    29   14   15 ar
    30   14   37 1
    31   15   16 1
    32   16   17 1
    33   16   18 1
    34   16   38 1
    35   17   39 1
    36   17   40 1
    37   18   23 ar
    38   18   19 ar
    39   19   20 ar
    40   19   41 1
    41   20   21 ar
    42   20   42 1
    43   21   22 ar
    44   21   24 1
    45   22   23 ar
    46   22   43 1
    47   23   44 1
    48   24   45 1
    49   25   46 1
@<TRIPOS>MOLECULE
CHEMBL93826__3
   47    50     0     0     0
SMALL
USER_CHARGES

@<TRIPOS>ATOM
      1 C1         -0.0167    1.3781    0.0096 C.ar      1 <0>        -0.0833
      2 C2          1.1709    2.0855    0.0021 C.ar      1 <0>        -0.1135
      3 C3          2.3773    1.4107   -0.0130 C.ar      1 <0>        -0.0971
      4 C4          2.3960    0.0285   -0.0201 C.ar      1 <0>        -0.1631
      5 C5          1.2084   -0.6789   -0.0117 C.ar      1 <0>        -0.0925
      6 C6          0.0021   -0.0041    0.0020 C.ar      1 <0>        -0.1130
      7 C7          3.7112   -0.7071   -0.0376 C.3       1 <0>         0.0451
      8 N1          4.1530   -0.9531    1.3416 N.4       1 <0>        -0.3815
      9 C8          4.4448    0.3243    1.9984 C.3       1 <0>         0.0426
     10 C9          5.0430    0.0949    3.3614 C.ar      1 <0>        -0.1085
     11 C10         5.0218    1.1356    4.2769 C.ar      1 <0>        -0.1249
     12 C11         5.5634    0.9662    5.5405 C.ar      1 <0>         0.1299
     13 C12         6.1303   -0.2512    5.8897 C.ar      1 <0>        -0.1237
     14 C13         6.1494   -1.2850    4.9765 C.ar      1 <0>        -0.0734
     15 C14         5.6049   -1.1146    3.7126 C.ar      1 <0>        -0.0965
     16 C15         5.6402   -2.2736    2.7491 C.3       1 <0>        -0.0143
     17 C16         5.3734   -1.7741    1.3286 C.3       1 <0>        -0.0016
     18 C17         6.9961   -2.9291    2.8033 C.ar      1 <0>        -0.1117
     19 C18         8.1290   -2.1977    2.4974 C.ar      1 <0>        -0.0871
     20 C19         9.3730   -2.7964    2.5459 C.ar      1 <0>        -0.1413
     21 C20         9.4851   -4.1325    2.9024 C.ar      1 <0>         0.1281
     22 C21         8.3469   -4.8640    3.2093 C.ar      1 <0>        -0.1411
     23 C22         7.1057   -4.2592    3.1643 C.ar      1 <0>        -0.0854
     24 O1         10.7077   -4.7238    2.9504 O.3       1 <0>        -0.4974
     25 O2          5.5400    1.9890    6.4350 O.3       1 <0>        -0.4930
     26 H1         -0.9591    1.9053    0.0259 H         1 <0>         0.1360
     27 H2          1.1563    3.1654    0.0076 H         1 <0>         0.1363
     28 H3          3.3051    1.9634   -0.0196 H         1 <0>         0.1308
     29 H4          1.2231   -1.7588   -0.0176 H         1 <0>         0.1317
     30 H5         -0.9258   -0.5567    0.0082 H         1 <0>         0.1363
     31 H6          3.5884   -1.6586   -0.5549 H         1 <0>         0.1408
     32 H7          4.4573   -0.1052   -0.5563 H         1 <0>         0.1377
     33 H8          5.1485    0.8899    1.3877 H         1 <0>         0.1387
     34 H9          3.5215    0.8941    2.1024 H         1 <0>         0.1402
     35 H10         4.5806    2.0828    4.0038 H         1 <0>         0.1403
     36 H11         6.5553   -0.3888    6.8729 H         1 <0>         0.1419
     37 H12         6.5910   -2.2326    5.2474 H         1 <0>         0.1378
     38 H13         4.8764   -2.9996    3.0274 H         1 <0>         0.1152
     39 H14         5.2349   -2.6250    0.6615 H         1 <0>         0.1418
     40 H15         6.2158   -1.1721    0.9880 H         1 <0>         0.1354
     41 H16         8.0412   -1.1577    2.2200 H         1 <0>         0.1245
     42 H17        10.2575   -2.2250    2.3063 H         1 <0>         0.1352
     43 H18         8.4316   -5.9042    3.4870 H         1 <0>         0.1371
     44 H19         6.2197   -4.8271    3.4074 H         1 <0>         0.1321
     45 H20        11.1410   -4.6620    3.8127 H         1 <0>         0.4005
     46 H21         4.7499    2.0062    6.9923 H         1 <0>         0.4024
     47 H22         3.4263   -1.4364    1.8479 H         1 <0>         0.4257
@<TRIPOS>BOND
     1    1    6 ar
     2    1    2 ar
     3    1   26 1
     4    2    3 ar
     5    2   27 1
     6    3    4 ar
     7    3   28 1
     8    4    5 ar
     9    4    7 1
    10    5    6 ar
    11    5   29 1
    12    6   30 1
    13    7    8 1
    14    7   31 1
    15    7   32 1
    16    8   17 1
    17    8    9 1
    18    8   47 1
    19    9   10 1
    20    9   33 1
    21    9   34 1
    22   10   15 ar
    23   10   11 ar
    24   11   12 ar
    25   11   35 1
    26   12   13 ar
    27   12   25 1
    28   13   14 ar
    29   13   36 1
    30   14   15 ar
    31   14   37 1
    32   15   16 1
    33   16   17 1
    34   16   18 1
    35   16   38 1
    36   17   39 1
    37   17   40 1
    38   18   23 ar
    39   18   19 ar
    40   19   20 ar
    41   19   41 1
    42   20   21 ar
    43   20   42 1
    44   21   22 ar
    45   21   24 1
    46   22   23 ar
    47   22   43 1
    48   23   44 1
    49   24   45 1
    50   25   46 1
@<TRIPOS>MOLECULE
CHEMBL93826__4
   46    49     0     0     0
SMALL
USER_CHARGES

@<TRIPOS>ATOM
      1 C1         -0.0167    1.3781    0.0096 C.ar      1 <0>        -0.0887
      2 C2          1.1709    2.0855    0.0021 C.ar      1 <0>        -0.1140
      3 C3          2.3773    1.4107   -0.0130 C.ar      1 <0>        -0.0929
      4 C4          2.3960    0.0285   -0.0201 C.ar      1 <0>        -0.1548
      5 C5          1.2084   -0.6789   -0.0117 C.ar      1 <0>        -0.0945
      6 C6          0.0021   -0.0041    0.0020 C.ar      1 <0>        -0.1161
      7 C7          3.7112   -0.7071   -0.0376 C.3       1 <0>         0.0445
      8 N1          4.1530   -0.9531    1.3416 N.4       1 <0>        -0.3780
      9 C8          4.4448    0.3243    1.9984 C.3       1 <0>         0.0490
     10 C9          5.0430    0.0949    3.3614 C.ar      1 <0>        -0.0736
     11 C10         5.0218    1.1356    4.2769 C.ar      1 <0>        -0.2473
     12 C11         5.5634    0.9662    5.5405 C.ar      1 <0>         0.2785
     13 C12         6.1303   -0.2512    5.8897 C.ar      1 <0>        -0.2429
     14 C13         6.1494   -1.2850    4.9765 C.ar      1 <0>        -0.0423
     15 C14         5.6049   -1.1146    3.7126 C.ar      1 <0>        -0.2472
     16 C15         5.6402   -2.2736    2.7491 C.3       1 <0>         0.0072
     17 C16         5.3734   -1.7741    1.3286 C.3       1 <0>         0.0049
     18 C17         6.9961   -2.9291    2.8033 C.ar      1 <0>        -0.0859
     19 C18         8.1290   -2.1977    2.4974 C.ar      1 <0>        -0.0829
     20 C19         9.3730   -2.7964    2.5459 C.ar      1 <0>        -0.1427
     21 C20         9.4851   -4.1325    2.9024 C.ar      1 <0>         0.1101
     22 C21         8.3469   -4.8640    3.2093 C.ar      1 <0>        -0.1442
     23 C22         7.1057   -4.2592    3.1643 C.ar      1 <0>        -0.0946
     24 O1         10.7077   -4.7238    2.9504 O.3       1 <0>        -0.5015
     25 O2          5.5400    1.9890    6.4350 O.3       1 <0>        -0.7068
     26 H1         -0.9591    1.9053    0.0259 H         1 <0>         0.1326
     27 H2          1.1563    3.1654    0.0076 H         1 <0>         0.1344
     28 H3          3.3051    1.9634   -0.0196 H         1 <0>         0.1316
     29 H4          1.2231   -1.7588   -0.0176 H         1 <0>         0.1300
     30 H5         -0.9258   -0.5567    0.0082 H         1 <0>         0.1330
     31 H6          3.5884   -1.6586   -0.5549 H         1 <0>         0.1336
     32 H7          4.4573   -0.1052   -0.5563 H         1 <0>         0.1329
     33 H8          5.1485    0.8899    1.3877 H         1 <0>         0.1230
     34 H9          3.5215    0.8941    2.1024 H         1 <0>         0.1264
     35 H10         4.5806    2.0828    4.0038 H         1 <0>         0.1024
     36 H11         6.5553   -0.3888    6.8729 H         1 <0>         0.1034
     37 H12         6.5910   -2.2326    5.2474 H         1 <0>         0.0992
     38 H13         4.8764   -2.9996    3.0274 H         1 <0>         0.0893
     39 H14         5.2349   -2.6250    0.6615 H         1 <0>         0.1257
     40 H15         6.2158   -1.1721    0.9880 H         1 <0>         0.1278
     41 H16         8.0412   -1.1577    2.2200 H         1 <0>         0.1265
     42 H17        10.2575   -2.2250    2.3063 H         1 <0>         0.1298
     43 H18         8.4316   -5.9042    3.4870 H         1 <0>         0.1299
     44 H19         6.2197   -4.8271    3.4074 H         1 <0>         0.1274
     45 H20        11.1410   -4.6620    3.8127 H         1 <0>         0.3946
     46 H21         3.4263   -1.4364    1.8479 H         1 <0>         0.4234
@<TRIPOS>BOND
     1    1    6 ar
     2    1    2 ar
     3    1   26 1
     4    2    3 ar
     5    2   27 1
     6    3    4 ar
     7    3   28 1
     8    4    5 ar
     9    4    7 1
    10    5    6 ar
    11    5   29 1
    12    6   30 1
    13    7    8 1
    14    7   31 1
    15    7   32 1
    16    8   17 1
    17    8    9 1
    18    8   46 1
    19    9   10 1
    20    9   33 1
    21    9   34 1
    22   10   15 ar
    23   10   11 ar
    24   11   12 ar
    25   11   35 1
    26   12   13 ar
    27   12   25 1
    28   13   14 ar
    29   13   36 1
    30   14   15 ar
    31   14   37 1
    32   15   16 1
    33   16   17 1
    34   16   18 1
    35   16   38 1
    36   17   39 1
    37   17   40 1
    38   18   23 ar
    39   18   19 ar
    40   19   20 ar
    41   19   41 1
    42   20   21 ar
    43   20   42 1
    44   21   22 ar
    45   21   24 1
    46   22   23 ar
    47   22   43 1
    48   23   44 1
    49   24   45 1
@<TRIPOS>MOLECULE
CHEMBL93826__5
   46    49     0     0     0
SMALL
USER_CHARGES

@<TRIPOS>ATOM
      1 C1         -0.0167    1.3781    0.0096 C.ar      1 <0>        -0.1188
      2 C2          1.1709    2.0855    0.0021 C.ar      1 <0>        -0.1205
      3 C3          2.3773    1.4107   -0.0130 C.ar      1 <0>        -0.1158
      4 C4          2.3960    0.0285   -0.0201 C.ar      1 <0>        -0.0805
      5 C5          1.2084   -0.6789   -0.0117 C.ar      1 <0>        -0.0970
      6 C6          0.0021   -0.0041    0.0020 C.ar      1 <0>        -0.1203
      7 C7          3.7112   -0.7071   -0.0376 C.3       1 <0>         0.0930
      8 N1          4.1530   -0.9531    1.3416 N.3       1 <0>        -0.5254
      9 C8          4.4884    0.3039    2.0180 C.3       1 <0>         0.0905
     10 C9          5.0320    0.0323    3.3964 C.ar      1 <0>        -0.0567
     11 C10         5.0542    1.0726    4.3126 C.ar      1 <0>        -0.1427
     12 C11         5.5489    0.8691    5.5902 C.ar      1 <0>         0.1069
     13 C12         6.0248   -0.3828    5.9530 C.ar      1 <0>        -0.1455
     14 C13         5.9998   -1.4160    5.0395 C.ar      1 <0>        -0.0920
     15 C14         5.5018   -1.2117    3.7610 C.ar      1 <0>        -0.0711
     16 C15         5.4853   -2.3751    2.8028 C.3       1 <0>         0.0015
     17 C16         5.3036   -1.8700    1.3712 C.3       1 <0>         0.0592
     18 C17         6.7872   -3.1271    2.9065 C.ar      1 <0>        -0.0858
     19 C18         7.9802   -2.4818    2.6382 C.ar      1 <0>        -0.0894
     20 C19         9.1749   -3.1690    2.7321 C.ar      1 <0>        -0.1427
     21 C20         9.1770   -4.5076    3.0964 C.ar      1 <0>         0.1047
     22 C21         7.9786   -5.1527    3.3655 C.ar      1 <0>        -0.1431
     23 C22         6.7870   -4.4597    3.2752 C.ar      1 <0>        -0.0958
     24 O1         10.3509   -5.1860    3.1890 O.3       1 <0>        -0.5003
     25 O2          5.5685    1.8918    6.4850 O.3       1 <0>        -0.4996
     26 H1         -0.9591    1.9053    0.0259 H         1 <0>         0.1211
     27 H2          1.1563    3.1654    0.0076 H         1 <0>         0.1213
     28 H3          3.3051    1.9634   -0.0196 H         1 <0>         0.1176
     29 H4          1.2231   -1.7588   -0.0176 H         1 <0>         0.1226
     30 H5         -0.9258   -0.5567    0.0082 H         1 <0>         0.1221
     31 H6          3.5884   -1.6586   -0.5549 H         1 <0>         0.0884
     32 H7          4.4573   -0.1052   -0.5563 H         1 <0>         0.0467
     33 H8          5.2378    0.8384    1.4341 H         1 <0>         0.0497
     34 H9          3.5927    0.9197    2.0989 H         1 <0>         0.0940
     35 H10         4.6841    2.0467    4.0286 H         1 <0>         0.1279
     36 H11         6.4138   -0.5475    6.9469 H         1 <0>         0.1281
     37 H12         6.3705   -2.3905    5.3215 H         1 <0>         0.1256
     38 H13         4.6623   -3.0426    3.0582 H         1 <0>         0.0998
     39 H14         5.1170   -2.7133    0.7063 H         1 <0>         0.0853
     40 H15         6.2018   -1.3408    1.0529 H         1 <0>         0.0451
     41 H16         7.9780   -1.4396    2.3547 H         1 <0>         0.1227
     42 H17        10.1065   -2.6646    2.5218 H         1 <0>         0.1281
     43 H18         7.9776   -6.1948    3.6492 H         1 <0>         0.1296
     44 H19         5.8542   -4.9603    3.4888 H         1 <0>         0.1288
     45 H20        10.7573   -5.1509    4.0658 H         1 <0>         0.3916
     46 H21         4.7664    1.9612    7.0207 H         1 <0>         0.3913
@<TRIPOS>BOND
     1    1    6 ar
     2    1    2 ar
     3    1   26 1
     4    2    3 ar
     5    2   27 1
     6    3    4 ar
     7    3   28 1
     8    4    5 ar
     9    4    7 1
    10    5    6 ar
    11    5   29 1
    12    6   30 1
    13    7    8 1
    14    7   31 1
    15    7   32 1
    16    8   17 1
    17    8    9 1
    18    9   10 1
    19    9   33 1
    20    9   34 1
    21   10   15 ar
    22   10   11 ar
    23   11   12 ar
    24   11   35 1
    25   12   13 ar
    26   12   25 1
    27   13   14 ar
    28   13   36 1
    29   14   15 ar
    30   14   37 1
    31   15   16 1
    32   16   17 1
    33   16   18 1
    34   16   38 1
    35   17   39 1
    36   17   40 1
    37   18   23 ar
    38   18   19 ar
    39   19   20 ar
    40   19   41 1
    41   20   21 ar
    42   20   42 1
    43   21   22 ar
    44   21   24 1
    45   22   23 ar
    46   22   43 1
    47   23   44 1
    48   24   45 1
    49   25   46 1
@<TRIPOS>MOLECULE
CHEMBL329312
   50    55     0     0     0
SMALL
USER_CHARGES

@<TRIPOS>ATOM
      1 C1         -0.0497    1.3245   -0.0476 C.ar      1 <0>        -0.1168
      2 C2          1.1265    2.0706   -0.0532 C.ar      1 <0>        -0.1107
      3 C3          2.3441    1.4588   -0.0505 C.ar      1 <0>        -0.1075
      4 C4          2.4177    0.0595   -0.0420 C.ar      1 <0>        -0.0247
      5 C5          1.2233   -0.7010   -0.0363 C.ar      1 <0>        -0.0506
      6 C6         -0.0155   -0.0365   -0.0393 C.ar      1 <0>        -0.1029
      7 C7          1.2958   -2.1047   -0.0273 C.ar      1 <0>        -0.0953
      8 C8          2.5084   -2.7272   -0.0241 C.ar      1 <0>        -0.1144
      9 C9          3.6907   -1.9984   -0.0292 C.ar      1 <0>        -0.0830
     10 C10         3.6664   -0.6112   -0.0385 C.ar      1 <0>        -0.0194
     11 C11         4.9260    0.1570   -0.0442 C.2       1 <0>        -0.0282
     12 C12         5.6888    0.6222    1.1234 C.ar      1 <0>        -0.1401
     13 C13         5.5080    0.5134    2.5031 C.ar      1 <0>        -0.0352
     14 C14         6.4198    1.0701    3.3535 C.ar      1 <0>        -0.1580
     15 C15         7.5293    1.7464    2.8502 C.ar      1 <0>         0.1520
     16 C16         7.7230    1.8635    1.4852 C.ar      1 <0>        -0.1433
     17 C17         6.8054    1.3022    0.6059 C.ar      1 <0>         0.0902
     18 O1          6.7364    1.2596   -0.7398 O.3       1 <0>        -0.1694
     19 C18         5.6416    0.5863   -1.1523 C.2       1 <0>        -0.0382
     20 C19         5.2678    0.3501   -2.5450 C.2       1 <0>         0.4763
     21 O2          4.3053   -0.3493   -2.8072 O.2       1 <0>        -0.4103
     22 C20         6.0565    0.9593   -3.6348 C.ar      1 <0>        -0.1652
     23 C21         7.2362    1.6500   -3.3445 C.ar      1 <0>        -0.0619
     24 C22         7.9691    2.2177   -4.3628 C.ar      1 <0>        -0.1263
     25 C23         7.5407    2.1068   -5.6808 C.ar      1 <0>         0.0892
     26 C24         6.3670    1.4178   -5.9770 C.ar      1 <0>         0.0361
     27 C25         5.6287    0.8419   -4.9594 C.ar      1 <0>        -0.0472
     28 O3          5.9383    1.2937   -7.2632 O.3       1 <0>        -0.3032
     29 C26         6.5064    2.1941   -8.2204 C.3       1 <0>         0.0192
     30 C27         8.0254    2.2289   -8.0046 C.3       1 <0>         0.0180
     31 O4          8.2784    2.6791   -6.6694 O.3       1 <0>        -0.3016
     32 O5          8.4284    2.2958    3.7072 O.3       1 <0>        -0.4905
     33 H1         -1.0025    1.8329   -0.0453 H         1 <0>         0.1244
     34 H2          1.0727    3.1493   -0.0601 H         1 <0>         0.1233
     35 H3          3.2482    2.0497   -0.0553 H         1 <0>         0.1197
     36 H4         -0.9352   -0.6026   -0.0348 H         1 <0>         0.1290
     37 H5          0.3889   -2.6912   -0.0226 H         1 <0>         0.1292
     38 H6          2.5506   -3.8063   -0.0172 H         1 <0>         0.1279
     39 H7          4.6383   -2.5166   -0.0261 H         1 <0>         0.1237
     40 H8          4.6489   -0.0093    2.8970 H         1 <0>         0.1366
     41 H9          6.2803    0.9862    4.4211 H         1 <0>         0.1413
     42 H10         8.5855    2.3901    1.1041 H         1 <0>         0.1446
     43 H11         7.5727    1.7388   -2.3221 H         1 <0>         0.1541
     44 H12         8.8803    2.7517   -4.1367 H         1 <0>         0.1446
     45 H13         4.7196    0.3057   -5.1882 H         1 <0>         0.1487
     46 H14         6.2863    1.8450   -9.2292 H         1 <0>         0.1268
     47 H15         6.0919    3.1921   -8.0776 H         1 <0>         0.0806
     48 H16         8.4388    1.2294   -8.1401 H         1 <0>         0.0824
     49 H17         8.4822    2.9159   -8.7169 H         1 <0>         0.1273
     50 H18         9.1488    1.7008    3.9562 H         1 <0>         0.3987
@<TRIPOS>BOND
     1    1    6 ar
     2    1    2 ar
     3    1   33 1
     4    2    3 ar
     5    2   34 1
     6    3    4 ar
     7    3   35 1
     8    4   10 ar
     9    4    5 ar
    10    5    6 ar
    11    5    7 ar
    12    6   36 1
    13    7    8 ar
    14    7   37 1
    15    8    9 ar
    16    8   38 1
    17    9   10 ar
    18    9   39 1
    19   10   11 1
    20   11   19 2
    21   11   12 1
    22   12   17 ar
    23   12   13 ar
    24   13   14 ar
    25   13   40 1
    26   14   15 ar
    27   14   41 1
    28   15   16 ar
    29   15   32 1
    30   16   17 ar
    31   16   42 1
    32   17   18 1
    33   18   19 1
    34   19   20 1
    35   20   21 2
    36   20   22 1
    37   22   27 ar
    38   22   23 ar
    39   23   24 ar
    40   23   43 1
    41   24   25 ar
    42   24   44 1
    43   25   31 1
    44   25   26 ar
    45   26   27 ar
    46   26   28 1
    47   27   45 1
    48   28   29 1
    49   29   30 1
    50   29   46 1
    51   29   47 1
    52   30   31 1
    53   30   48 1
    54   30   49 1
    55   32   50 1
@<TRIPOS>MOLECULE
CHEMBL99335
   45    48     0     0     0
SMALL
USER_CHARGES

@<TRIPOS>ATOM
      1 C1          0.0048    1.4337    0.0481 C.3       1 <0>         0.0241
      2 O1          0.0108    0.0048    0.0288 O.3       1 <0>        -0.3132
      3 C2         -1.1969   -0.6177    0.0558 C.ar      1 <0>         0.1336
      4 C3         -2.3642    0.1315    0.0943 C.ar      1 <0>        -0.2103
      5 C4         -3.5905   -0.5035    0.1213 C.ar      1 <0>        -0.0804
      6 C5         -3.6555   -1.8848    0.1099 C.ar      1 <0>        -0.1580
      7 C6         -2.4940   -2.6335    0.0721 C.ar      1 <0>        -0.0706
      8 C7         -1.2650   -2.0030    0.0392 C.ar      1 <0>        -0.1105
      9 C8          0.0006   -2.8198   -0.0084 C.3       1 <0>        -0.0165
     10 C9          0.5305   -3.0069    1.3899 C.2       1 <0>        -0.0457
     11 C10         1.4348   -2.1545    2.0708 C.ar      1 <0>        -0.1432
     12 C11         2.0881   -0.9647    1.7266 C.ar      1 <0>        -0.0253
     13 C12         2.9220   -0.3644    2.6236 C.ar      1 <0>        -0.1682
     14 C13         3.1288   -0.9274    3.8822 C.ar      1 <0>         0.1528
     15 C14         2.4919   -2.1028    4.2403 C.ar      1 <0>        -0.1495
     16 C15         1.6398   -2.7278    3.3406 C.ar      1 <0>         0.0863
     17 O2          0.8985   -3.8526    3.4024 O.3       1 <0>        -0.1707
     18 C16         0.2276   -4.0234    2.2418 C.2       1 <0>        -0.0641
     19 C17        -0.6825   -5.1340    1.9453 C.2       1 <0>         0.4732
     20 O3         -1.2978   -5.1528    0.8952 O.2       1 <0>        -0.4065
     21 C18        -0.8528   -6.2305    2.9213 C.ar      1 <0>        -0.1607
     22 C19        -0.2469   -6.1523    4.1774 C.ar      1 <0>        -0.0579
     23 C20        -0.4102   -7.1787    5.0834 C.ar      1 <0>        -0.1294
     24 C21        -1.1722   -8.2857    4.7513 C.ar      1 <0>        -0.0711
     25 C22        -1.7756   -8.3712    3.5099 C.ar      1 <0>        -0.1268
     26 C23        -1.6255   -7.3480    2.5941 C.ar      1 <0>         0.0173
     27 Cl1        -2.3893   -7.4530    1.0387 Cl        1 <0>        -0.0326
     28 O4          3.9625   -0.3177    4.7638 O.3       1 <0>        -0.4915
     29 H1          1.0305    1.8017    0.0230 H         1 <0>         0.1001
     30 H2         -0.5364    1.8065   -0.8215 H         1 <0>         0.0564
     31 H3         -0.4842    1.7827    0.9576 H         1 <0>         0.0550
     32 H4         -2.3139    1.2103    0.1035 H         1 <0>         0.1271
     33 H5         -4.4993    0.0792    0.1516 H         1 <0>         0.1234
     34 H6         -4.6153   -2.3795    0.1311 H         1 <0>         0.1235
     35 H7         -2.5474   -3.7122    0.0637 H         1 <0>         0.1443
     36 H8         -0.2118   -3.7935   -0.4498 H         1 <0>         0.1019
     37 H9          0.7450   -2.3014   -0.6127 H         1 <0>         0.0903
     38 H10         1.9324   -0.5237    0.7532 H         1 <0>         0.1461
     39 H11         3.4257    0.5530    2.3571 H         1 <0>         0.1377
     40 H12         2.6578   -2.5327    5.2171 H         1 <0>         0.1412
     41 H13         0.3486   -5.2899    4.4382 H         1 <0>         0.1521
     42 H14         0.0580   -7.1190    6.0549 H         1 <0>         0.1374
     43 H15        -1.2959   -9.0867    5.4651 H         1 <0>         0.1393
     44 H16        -2.3684   -9.2379    3.2573 H         1 <0>         0.1420
     45 H17         3.5250    0.3247    5.3391 H         1 <0>         0.3973
@<TRIPOS>BOND
     1    1    2 1
     2    1   29 1
     3    1   30 1
     4    1   31 1
     5    2    3 1
     6    3    8 ar
     7    3    4 ar
     8    4    5 ar
     9    4   32 1
    10    5    6 ar
    11    5   33 1
    12    6    7 ar
    13    6   34 1
    14    7    8 ar
    15    7   35 1
    16    8    9 1
    17    9   10 1
    18    9   36 1
    19    9   37 1
    20   10   18 2
    21   10   11 1
    22   11   16 ar
    23   11   12 ar
    24   12   13 ar
    25   12   38 1
    26   13   14 ar
    27   13   39 1
    28   14   15 ar
    29   14   28 1
    30   15   16 ar
    31   15   40 1
    32   16   17 1
    33   17   18 1
    34   18   19 1
    35   19   20 2
    36   19   21 1
    37   21   26 ar
    38   21   22 ar
    39   22   23 ar
    40   22   41 1
    41   23   24 ar
    42   23   42 1
    43   24   25 ar
    44   24   43 1
    45   25   26 ar
    46   25   44 1
    47   26   27 1
    48   28   45 1
@<TRIPOS>MOLECULE
CHEMBL202472
   52    53     0     0     0
SMALL
USER_CHARGES

@<TRIPOS>ATOM
      1 C1         -0.4678    0.0013   -0.4859 C.3       1 <0>        -0.1520
      2 C2         -0.4259   -1.5050   -0.2208 C.3       1 <0>        -0.1451
      3 C3         -1.8413   -2.0786   -0.3129 C.3       1 <0>         0.1109
      4 N1         -1.8083   -3.5113   -0.0087 N.pl3     1 <0>        -0.9438
      5 C4         -1.4662   -3.9451    1.2742 C.ar      1 <0>         0.1383
      6 C5         -2.4263   -3.9760    2.2777 C.ar      1 <0>        -0.0567
      7 C6         -2.0848   -4.4059    3.5449 C.ar      1 <0>        -0.1144
      8 C7         -0.7887   -4.8050    3.8155 C.ar      1 <0>        -0.1026
      9 C8          0.1695   -4.7755    2.8188 C.ar      1 <0>        -0.1151
     10 C9         -0.1666   -4.3521    1.5480 C.ar      1 <0>        -0.0750
     11 C10         0.8768   -4.3263    0.4609 C.3       1 <0>        -0.1100
     12 C11         2.0666   -3.4788    0.9159 C.3       1 <0>        -0.1453
     13 C12        -3.8387   -3.5403    1.9840 C.3       1 <0>        -0.0920
     14 C13        -4.6377   -4.7291    1.4463 C.3       1 <0>        -0.1641
     15 S1         -2.1765   -4.6164   -1.1857 S.o2      1 <0>         2.6802
     16 O1         -2.5583   -5.8105   -0.5165 O.2       1 <0>        -0.9367
     17 O2         -3.0291   -3.9557   -2.1108 O.2       1 <0>        -0.9495
     18 C14        -0.6824   -4.9776   -2.0470 C.ar      1 <0>        -0.6909
     19 C15        -0.3744   -4.2963   -3.2104 C.ar      1 <0>        -0.0073
     20 C16         0.7960   -4.5778   -3.8877 C.ar      1 <0>        -0.1636
     21 C17         1.6632   -5.5448   -3.3996 C.ar      1 <0>         0.1682
     22 C18         1.3521   -6.2265   -2.2323 C.ar      1 <0>        -0.1341
     23 C19         0.1826   -5.9375   -1.5557 C.ar      1 <0>         0.0069
     24 C20         2.2917   -7.2774   -1.6995 C.3       1 <0>        -0.1168
     25 O3          2.8151   -5.8240   -4.0645 O.3       1 <0>        -0.4932
     26 H1          0.5405    0.4100   -0.4203 H         1 <0>         0.0586
     27 H2         -0.8697    0.1838   -1.4825 H         1 <0>         0.0576
     28 H3         -1.1042    0.4833    0.2563 H         1 <0>         0.0577
     29 H4          0.2105   -1.9869   -0.9630 H         1 <0>         0.0661
     30 H5         -0.0240   -1.6874    0.7759 H         1 <0>         0.0750
     31 H6         -2.4868   -1.5699    0.4030 H         1 <0>         0.0845
     32 H7         -2.2286   -1.9301   -1.3209 H         1 <0>         0.0983
     33 H8         -2.8307   -4.4301    4.3255 H         1 <0>         0.1274
     34 H9         -0.5241   -5.1401    4.8075 H         1 <0>         0.1264
     35 H10         1.1808   -5.0878    3.0335 H         1 <0>         0.1264
     36 H11         1.2123   -5.3427    0.2551 H         1 <0>         0.0820
     37 H12         0.4483   -3.8949   -0.4438 H         1 <0>         0.0800
     38 H13         1.7125   -2.5008    1.2420 H         1 <0>         0.0602
     39 H14         2.5719   -3.9767    1.7435 H         1 <0>         0.0578
     40 H15         2.7630   -3.3551    0.0866 H         1 <0>         0.0559
     41 H16        -4.3037   -3.1741    2.8993 H         1 <0>         0.0763
     42 H17        -3.8260   -2.7444    1.2393 H         1 <0>         0.0744
     43 H18        -4.1330   -5.1407    0.5722 H         1 <0>         0.0673
     44 H19        -4.7118   -5.4958    2.2176 H         1 <0>         0.0609
     45 H20        -5.6376   -4.3979    1.1660 H         1 <0>         0.0596
     46 H21        -1.0497   -3.5437   -3.5898 H         1 <0>         0.1446
     47 H22         1.0358   -4.0460   -4.7966 H         1 <0>         0.1406
     48 H23        -0.0581   -6.4650   -0.6446 H         1 <0>         0.1430
     49 H24         3.0086   -6.8138   -1.0217 H         1 <0>         0.0735
     50 H25         1.7218   -8.0356   -1.1624 H         1 <0>         0.0726
     51 H26         2.8242   -7.7428   -2.5288 H         1 <0>         0.0779
     52 H27         3.5702   -5.2884   -3.7850 H         1 <0>         0.3989
@<TRIPOS>BOND
     1    1    2 1
     2    1   26 1
     3    1   27 1
     4    1   28 1
     5    2    3 1
     6    2   29 1
     7    2   30 1
     8    3    4 1
     9    3   31 1
    10    3   32 1
    11    4    5 1
    12    4   15 1
    13    5   10 ar
    14    5    6 ar
    15    6    7 ar
    16    6   13 1
    17    7    8 ar
    18    7   33 1
    19    8    9 ar
    20    8   34 1
    21    9   10 ar
    22    9   35 1
    23   10   11 1
    24   11   12 1
    25   11   36 1
    26   11   37 1
    27   12   38 1
    28   12   39 1
    29   12   40 1
    30   13   14 1
    31   13   41 1
    32   13   42 1
    33   14   43 1
    34   14   44 1
    35   14   45 1
    36   15   16 2
    37   15   17 2
    38   15   18 1
    39   18   23 ar
    40   18   19 ar
    41   19   20 ar
    42   19   46 1
    43   20   21 ar
    44   20   47 1
    45   21   22 ar
    46   21   25 1
    47   22   23 ar
    48   22   24 1
    49   23   48 1
    50   24   49 1
    51   24   50 1
    52   24   51 1
    53   25   52 1
@<TRIPOS>MOLECULE
CHEMBL470993
   59    63     0     0     0
SMALL
USER_CHARGES

@<TRIPOS>ATOM
      1 C1         -0.0166    1.3766    0.0096 C.ar      1 <0>        -0.1252
      2 C2          1.1689    2.0911    0.0021 C.ar      1 <0>        -0.0968
      3 C3          2.3849    1.4321   -0.0131 C.ar      1 <0>        -0.1293
      4 C4          2.4197    0.0494   -0.0208 C.ar      1 <0>         0.1129
      5 C5          1.2209   -0.6765   -0.0130 C.ar      1 <0>        -0.0752
      6 C6          0.0021   -0.0041    0.0020 C.ar      1 <0>        -0.0949
      7 C7          1.2783   -2.1532   -0.0199 C.2       1 <0>        -0.0355
      8 C8          2.1031   -2.7887    0.8608 C.2       1 <0>        -0.0494
      9 C9          2.8809   -1.9697    1.8595 C.3       1 <0>        -0.1225
     10 C10         4.0250   -1.2291    1.1768 C.3       1 <0>         0.0732
     11 O1          3.6011   -0.6197   -0.0353 O.3       1 <0>        -0.3258
     12 C11         2.2317   -4.2530    0.8370 C.ar      1 <0>        -0.0533
     13 C12         1.1310   -5.0597    1.1465 C.ar      1 <0>        -0.0829
     14 C13         1.2571   -6.4314    1.1222 C.ar      1 <0>        -0.1448
     15 C14         2.4740   -7.0139    0.7912 C.ar      1 <0>         0.1081
     16 C15         3.5700   -6.2178    0.4830 C.ar      1 <0>        -0.1406
     17 C16         3.4537   -4.8452    0.4991 C.ar      1 <0>        -0.0868
     18 O2          2.5929   -8.3672    0.7692 O.3       1 <0>        -0.4975
     19 C17         0.4521   -2.9314   -0.9690 C.ar      1 <0>        -0.0479
     20 C18         1.0629   -3.7029   -1.9590 C.ar      1 <0>        -0.0542
     21 C19         0.2897   -4.4269   -2.8411 C.ar      1 <0>        -0.1371
     22 C20        -1.0953   -4.3896   -2.7457 C.ar      1 <0>         0.1125
     23 C21        -1.7067   -3.6229   -1.7623 C.ar      1 <0>        -0.1987
     24 C22        -0.9402   -2.9006   -0.8729 C.ar      1 <0>        -0.0706
     25 O3         -1.8540   -5.1046   -3.6169 O.3       1 <0>        -0.3290
     26 C23        -3.2722   -5.0210   -3.4622 C.3       1 <0>         0.0294
     27 C24        -3.9530   -5.8861   -4.5247 C.3       1 <0>         0.0007
     28 N1         -3.6195   -7.2980   -4.2939 N.4       1 <0>        -0.4133
     29 C25        -4.5281   -7.9676   -3.3447 C.3       1 <0>        -0.0049
     30 C26        -4.4422   -9.2182   -4.2308 C.3       1 <0>        -0.1600
     31 C27        -4.1362   -8.2011   -5.3391 C.3       1 <0>         0.0003
     32 H1         -0.9605    1.9013    0.0260 H         1 <0>         0.1285
     33 H2          1.1443    3.1708    0.0079 H         1 <0>         0.1316
     34 H3          3.3058    1.9963   -0.0187 H         1 <0>         0.1343
     35 H4         -0.9242   -0.5594    0.0077 H         1 <0>         0.1252
     36 H5          2.2136   -1.2459    2.3274 H         1 <0>         0.0838
     37 H6          3.2874   -2.6297    2.6259 H         1 <0>         0.0935
     38 H7          4.4027   -0.4592    1.8495 H         1 <0>         0.0645
     39 H8          4.8266   -1.9349    0.9592 H         1 <0>         0.1022
     40 H9          0.1846   -4.6079    1.4043 H         1 <0>         0.1232
     41 H10         0.4083   -7.0550    1.3613 H         1 <0>         0.1264
     42 H11         4.5138   -6.6759    0.2267 H         1 <0>         0.1325
     43 H12         4.3052   -4.2272    0.2550 H         1 <0>         0.1299
     44 H13         2.3924   -8.7657   -0.0888 H         1 <0>         0.3892
     45 H14         2.1399   -3.7321   -2.0341 H         1 <0>         0.1339
     46 H15         0.7615   -5.0237   -3.6076 H         1 <0>         0.1325
     47 H16        -2.7840   -3.5961   -1.6915 H         1 <0>         0.1277
     48 H17        -1.4163   -2.3082   -0.1056 H         1 <0>         0.1309
     49 H18        -3.5511   -5.3769   -2.4704 H         1 <0>         0.0839
     50 H19        -3.5899   -3.9849   -3.5790 H         1 <0>         0.1068
     51 H20        -5.0332   -5.7533   -4.4639 H         1 <0>         0.1483
     52 H21        -3.6054   -5.5876   -5.5137 H         1 <0>         0.1400
     53 H22        -4.0954   -8.1068   -2.3540 H         1 <0>         0.1346
     54 H23        -5.5242   -7.5261   -3.3120 H         1 <0>         0.1510
     55 H24        -3.6100   -9.8797   -3.9898 H         1 <0>         0.1234
     56 H25        -5.3896   -9.7427   -4.3555 H         1 <0>         0.1308
     57 H26        -5.0276   -7.8219   -5.8387 H         1 <0>         0.1512
     58 H27        -3.3713   -8.5382   -6.0387 H         1 <0>         0.1370
     59 H28        -2.6428   -7.4425   -4.0857 H         1 <0>         0.4423
@<TRIPOS>BOND
     1    1    6 ar
     2    1    2 ar
     3    1   32 1
     4    2    3 ar
     5    2   33 1
     6    3    4 ar
     7    3   34 1
     8    4   11 1
     9    4    5 ar
    10    5    6 ar
    11    5    7 1
    12    6   35 1
    13    7    8 2
    14    7   19 1
    15    8    9 1
    16    8   12 1
    17    9   10 1
    18    9   36 1
    19    9   37 1
    20   10   11 1
    21   10   38 1
    22   10   39 1
    23   12   17 ar
    24   12   13 ar
    25   13   14 ar
    26   13   40 1
    27   14   15 ar
    28   14   41 1
    29   15   16 ar
    30   15   18 1
    31   16   17 ar
    32   16   42 1
    33   17   43 1
    34   18   44 1
    35   19   24 ar
    36   19   20 ar
    37   20   21 ar
    38   20   45 1
    39   21   22 ar
    40   21   46 1
    41   22   23 ar
    42   22   25 1
    43   23   24 ar
    44   23   47 1
    45   24   48 1
    46   25   26 1
    47   26   27 1
    48   26   49 1
    49   26   50 1
    50   27   28 1
    51   27   51 1
    52   27   52 1
    53   28   31 1
    54   28   29 1
    55   28   59 1
    56   29   30 1
    57   29   53 1
    58   29   54 1
    59   30   31 1
    60   30   55 1
    61   30   56 1
    62   31   57 1
    63   31   58 1
@<TRIPOS>MOLECULE
CHEMBL299942
   64    68     0     0     0
SMALL
USER_CHARGES

@<TRIPOS>ATOM
      1 C1          2.3759    3.3389    0.1745 C.ar      1 <0>        -0.1182
      2 C2          1.5519    2.2432    0.3512 C.ar      1 <0>        -0.1218
      3 C3          2.0702    0.9655    0.2528 C.ar      1 <0>        -0.1165
      4 C4          3.4126    0.7835   -0.0228 C.ar      1 <0>        -0.0726
      5 C5          4.2364    1.8793   -0.2004 C.ar      1 <0>        -0.1122
      6 C6          3.7183    3.1570   -0.1006 C.ar      1 <0>        -0.1219
      7 C7          3.9779   -0.6094   -0.1291 C.3       1 <0>        -0.0808
      8 H1          4.9670   -0.5705   -0.5854 H         1 <0>         0.1025
      9 C8          4.0772   -1.2350    1.2681 C.3       1 <0>         0.0681
     10 O1          2.7881   -1.1771    1.8801 O.3       1 <0>        -0.3031
     11 C9          1.7234   -1.6181    1.1607 C.ar      1 <0>         0.1599
     12 C10         0.5444   -1.9139    1.8361 C.ar      1 <0>        -0.1826
     13 C11        -0.5642   -2.3613    1.1377 C.ar      1 <0>         0.1499
     14 C12        -0.4970   -2.5141   -0.2401 C.ar      1 <0>        -0.1780
     15 C13         0.6743   -2.2221   -0.9089 C.ar      1 <0>        -0.0624
     16 C14         1.7865   -1.7767   -0.2130 C.ar      1 <0>        -0.1741
     17 C15         3.0504   -1.4789   -0.9814 C.3       1 <0>         0.0049
     18 H2          3.5541   -2.4138   -1.2271 H         1 <0>         0.1003
     19 C16         2.7052   -0.7471   -2.2528 C.ar      1 <0>        -0.0888
     20 C17         1.5682    0.0375   -2.3105 C.ar      1 <0>        -0.0589
     21 C18         1.2494    0.7090   -3.4750 C.ar      1 <0>        -0.1401
     22 C19         2.0713    0.5958   -4.5868 C.ar      1 <0>         0.1128
     23 C20         3.2118   -0.1918   -4.5262 C.ar      1 <0>        -0.2018
     24 C21         3.5290   -0.8571   -3.3578 C.ar      1 <0>        -0.0722
     25 O2          1.7595    1.2550   -5.7336 O.3       1 <0>        -0.3292
     26 C22         2.6513    1.0923   -6.8384 C.3       1 <0>         0.0263
     27 C23         2.1395    1.9032   -8.0306 C.3       1 <0>        -0.0008
     28 N1          2.1434    3.3319   -7.6889 N.4       1 <0>        -0.3839
     29 C24         1.5103    4.0941   -8.7719 C.3       1 <0>        -0.0071
     30 C25         1.4387    5.5730   -8.3855 C.3       1 <0>        -0.1467
     31 C26         2.8560    6.1020   -8.1477 C.3       1 <0>        -0.1388
     32 C27         3.5330    5.2523   -7.0684 C.3       1 <0>        -0.1453
     33 C28         3.5270    3.7853   -7.5035 C.3       1 <0>        -0.0127
     34 O3         -1.7152   -2.6505    1.7998 O.3       1 <0>        -0.4937
     35 H3          1.9700    4.3371    0.2469 H         1 <0>         0.1191
     36 H4          0.5031    2.3854    0.5665 H         1 <0>         0.1190
     37 H5          1.4266    0.1095    0.3916 H         1 <0>         0.1374
     38 H6          5.2852    1.7371   -0.4153 H         1 <0>         0.1184
     39 H7          4.3621    4.0130   -0.2390 H         1 <0>         0.1194
     40 H8          4.3971   -2.2736    1.1833 H         1 <0>         0.0755
     41 H9          4.7948   -0.6773    1.8699 H         1 <0>         0.1153
     42 H10         0.4935   -1.7946    2.9083 H         1 <0>         0.1409
     43 H11        -1.3603   -2.8615   -0.7883 H         1 <0>         0.1332
     44 H12         0.7244   -2.3417   -1.9811 H         1 <0>         0.1298
     45 H13         0.9287    0.1253   -1.4447 H         1 <0>         0.1402
     46 H14         0.3608    1.3212   -3.5198 H         1 <0>         0.1302
     47 H15         3.8532   -0.2815   -5.3904 H         1 <0>         0.1261
     48 H16         4.4191   -1.4668   -3.3086 H         1 <0>         0.1297
     49 H17         3.6442    1.4445   -6.5588 H         1 <0>         0.0853
     50 H18         2.7032    0.0383   -7.1112 H         1 <0>         0.1086
     51 H19         2.7875    1.7335   -8.8905 H         1 <0>         0.1484
     52 H20         1.1240    1.5905   -8.2736 H         1 <0>         0.1422
     53 H21         2.0976    3.9853   -9.6837 H         1 <0>         0.1291
     54 H22         0.5029    3.7143   -8.9421 H         1 <0>         0.1309
     55 H23         0.9700    6.1375   -9.1916 H         1 <0>         0.1131
     56 H24         0.8514    5.6830   -7.4739 H         1 <0>         0.0879
     57 H25         3.4285    6.0395   -9.0731 H         1 <0>         0.0821
     58 H26         2.8071    7.1396   -7.8173 H         1 <0>         0.0947
     59 H27         4.5613    5.5876   -6.9329 H         1 <0>         0.1120
     60 H28         2.9891    5.3557   -6.1294 H         1 <0>         0.0878
     61 H29         4.0085    3.1776   -6.7374 H         1 <0>         0.1270
     62 H30         4.0713    3.6831   -8.4423 H         1 <0>         0.1300
     63 H31        -2.3186   -1.8998    1.8860 H         1 <0>         0.3966
     64 H32         1.6266    3.4736   -6.8340 H         1 <0>         0.4295
@<TRIPOS>BOND
     1    1    6 ar
     2    1    2 ar
     3    1   35 1
     4    2    3 ar
     5    2   36 1
     6    3    4 ar
     7    3   37 1
     8    4    5 ar
     9    4    7 1
    10    5    6 ar
    11    5   38 1
    12    6   39 1
    13    7    8 1
    14    7   17 1
    15    7    9 1
    16    9   10 1
    17    9   40 1
    18    9   41 1
    19   10   11 1
    20   11   16 ar
    21   11   12 ar
    22   12   13 ar
    23   12   42 1
    24   13   14 ar
    25   13   34 1
    26   14   15 ar
    27   14   43 1
    28   15   16 ar
    29   15   44 1
    30   16   17 1
    31   17   18 1
    32   17   19 1
    33   19   24 ar
    34   19   20 ar
    35   20   21 ar
    36   20   45 1
    37   21   22 ar
    38   21   46 1
    39   22   23 ar
    40   22   25 1
    41   23   24 ar
    42   23   47 1
    43   24   48 1
    44   25   26 1
    45   26   27 1
    46   26   49 1
    47   26   50 1
    48   27   28 1
    49   27   51 1
    50   27   52 1
    51   28   33 1
    52   28   29 1
    53   28   64 1
    54   29   30 1
    55   29   53 1
    56   29   54 1
    57   30   31 1
    58   30   55 1
    59   30   56 1
    60   31   32 1
    61   31   57 1
    62   31   58 1
    63   32   33 1
    64   32   59 1
    65   32   60 1
    66   33   61 1
    67   33   62 1
    68   34   63 1
@<TRIPOS>MOLECULE
CHEMBL52598
   64    68     0     0     0
SMALL
USER_CHARGES

@<TRIPOS>ATOM
      1 C1          2.5559    3.0018    0.2206 C.ar      1 <0>        -0.1160
      2 C2          1.8728    1.8105    0.3792 C.ar      1 <0>        -0.1216
      3 C3          2.5302    0.6077    0.2005 C.ar      1 <0>        -0.1167
      4 C4          3.8706    0.5961   -0.1371 C.ar      1 <0>        -0.0761
      5 C5          4.5535    1.7874   -0.2965 C.ar      1 <0>        -0.1118
      6 C6          3.8965    2.9902   -0.1165 C.ar      1 <0>        -0.1208
      7 C7          4.5875   -0.7152   -0.3308 C.3       1 <0>        -0.0794
      8 H1          5.5455   -0.5412   -0.8208 H         1 <0>         0.1022
      9 C8          4.8170   -1.3850    1.0300 C.3       1 <0>         0.0686
     10 O1          3.5567   -1.5048    1.6912 O.3       1 <0>        -0.3028
     11 C9          2.5205   -2.0356    0.9912 C.ar      1 <0>         0.1608
     12 C10         1.4130   -2.4963    1.6945 C.ar      1 <0>        -0.1827
     13 C11         0.3348   -3.0395    1.0168 C.ar      1 <0>         0.1505
     14 C12         0.3610   -3.1235   -0.3684 C.ar      1 <0>        -0.1778
     15 C13         1.4617   -2.6678   -1.0650 C.ar      1 <0>        -0.0620
     16 C14         2.5435   -2.1260   -0.3900 C.ar      1 <0>        -0.1748
     17 C15         3.7312   -1.6494   -1.1892 C.3       1 <0>         0.0025
     18 H2          4.3284   -2.5074   -1.4978 H         1 <0>         0.1007
     19 C16         3.2508   -0.9086   -2.4104 C.ar      1 <0>        -0.0588
     20 C17         2.0307   -0.2578   -2.3869 C.ar      1 <0>        -0.0763
     21 C18         1.5871    0.4216   -3.5042 C.ar      1 <0>        -0.0898
     22 C19         2.3685    0.4514   -4.6530 C.ar      1 <0>        -0.0958
     23 C20         3.5942   -0.2033   -4.6728 C.ar      1 <0>        -0.1312
     24 C21         4.0337   -0.8764   -3.5501 C.ar      1 <0>        -0.0933
     25 S1          1.8063    1.3166   -6.0813 S.3       1 <0>        -0.0637
     26 C22         3.1352    1.0750   -7.2921 C.3       1 <0>        -0.1639
     27 C23         2.7710    1.7850   -8.5976 C.3       1 <0>         0.0104
     28 N1          3.8472    1.5894   -9.5781 N.4       1 <0>        -0.3802
     29 C24         5.0697    2.2447   -9.0979 C.3       1 <0>        -0.0138
     30 C25         6.2152    1.9755  -10.0761 C.3       1 <0>        -0.1452
     31 C26         5.8438    2.5313  -11.4539 C.3       1 <0>        -0.1399
     32 C27         4.5280    1.8958  -11.9121 C.3       1 <0>        -0.1459
     33 C28         3.4450    2.1679  -10.8658 C.3       1 <0>        -0.0065
     34 O2         -0.7464   -3.4898    1.7062 O.3       1 <0>        -0.4939
     35 H3          2.0412    3.9416    0.3557 H         1 <0>         0.1203
     36 H4          0.8255    1.8196    0.6429 H         1 <0>         0.1195
     37 H5          1.9966   -0.3230    0.3251 H         1 <0>         0.1369
     38 H6          5.6009    1.7783   -0.5600 H         1 <0>         0.1178
     39 H7          4.4301    3.9209   -0.2407 H         1 <0>         0.1202
     40 H8          5.2504   -2.3744    0.8839 H         1 <0>         0.0750
     41 H9          5.4903   -0.7738    1.6311 H         1 <0>         0.1155
     42 H10         1.3939   -2.4304    2.7724 H         1 <0>         0.1411
     43 H11        -0.4789   -3.5454   -0.9004 H         1 <0>         0.1334
     44 H12         1.4799   -2.7341   -2.1429 H         1 <0>         0.1294
     45 H13         1.4240   -0.2813   -1.4938 H         1 <0>         0.1394
     46 H14         0.6339    0.9290   -3.4854 H         1 <0>         0.1293
     47 H15         4.2041   -0.1823   -5.5639 H         1 <0>         0.1159
     48 H16         4.9879   -1.3820   -3.5634 H         1 <0>         0.1286
     49 H17         4.0639    1.4896   -6.8999 H         1 <0>         0.1091
     50 H18         3.2646    0.0095   -7.4819 H         1 <0>         0.1093
     51 H19         1.8424    1.3705   -8.9898 H         1 <0>         0.1422
     52 H20         2.6417    2.8506   -8.4078 H         1 <0>         0.1404
     53 H21         4.9006    3.3189   -9.0239 H         1 <0>         0.1314
     54 H22         5.3310    1.8504   -8.1159 H         1 <0>         0.1282
     55 H23         7.1215    2.4643   -9.7187 H         1 <0>         0.1127
     56 H24         6.3854    0.9015  -10.1507 H         1 <0>         0.0876
     57 H25         5.7236    3.6128  -11.3904 H         1 <0>         0.0826
     58 H26         6.6320    2.2923  -12.1679 H         1 <0>         0.0950
     59 H27         4.2283    2.3276  -12.8669 H         1 <0>         0.1139
     60 H28         4.6631    0.8201  -12.0247 H         1 <0>         0.0880
     61 H29         2.5068    1.7169  -11.1890 H         1 <0>         0.1322
     62 H30         3.3105    3.2438  -10.7541 H         1 <0>         0.1304
     63 H31        -1.4280   -2.8193    1.8504 H         1 <0>         0.3970
     64 H32         4.0204    0.6021   -9.6935 H         1 <0>         0.4229
@<TRIPOS>BOND
     1    1    6 ar
     2    1    2 ar
     3    1   35 1
     4    2    3 ar
     5    2   36 1
     6    3    4 ar
     7    3   37 1
     8    4    5 ar
     9    4    7 1
    10    5    6 ar
    11    5   38 1
    12    6   39 1
    13    7    8 1
    14    7   17 1
    15    7    9 1
    16    9   10 1
    17    9   40 1
    18    9   41 1
    19   10   11 1
    20   11   16 ar
    21   11   12 ar
    22   12   13 ar
    23   12   42 1
    24   13   14 ar
    25   13   34 1
    26   14   15 ar
    27   14   43 1
    28   15   16 ar
    29   15   44 1
    30   16   17 1
    31   17   18 1
    32   17   19 1
    33   19   24 ar
    34   19   20 ar
    35   20   21 ar
    36   20   45 1
    37   21   22 ar
    38   21   46 1
    39   22   23 ar
    40   22   25 1
    41   23   24 ar
    42   23   47 1
    43   24   48 1
    44   25   26 1
    45   26   27 1
    46   26   49 1
    47   26   50 1
    48   27   28 1
    49   27   51 1
    50   27   52 1
    51   28   33 1
    52   28   29 1
    53   28   64 1
    54   29   30 1
    55   29   53 1
    56   29   54 1
    57   30   31 1
    58   30   55 1
    59   30   56 1
    60   31   32 1
    61   31   57 1
    62   31   58 1
    63   32   33 1
    64   32   59 1
    65   32   60 1
    66   33   61 1
    67   33   62 1
    68   34   63 1
@<TRIPOS>MOLECULE
CHEMBL151318
   64    68     0     0     0
SMALL
USER_CHARGES

@<TRIPOS>ATOM
      1 C1         -0.0356    0.6751    0.1503 C.ar      1 <0>        -0.1263
      2 C2          1.0559    1.5154    0.0744 C.ar      1 <0>        -0.0553
      3 C3          2.3449    0.9800    0.0548 C.ar      1 <0>        -0.1530
      4 C4          2.5203   -0.4036    0.1123 C.ar      1 <0>        -0.0566
      5 C5          1.4203   -1.2327    0.1880 C.ar      1 <0>        -0.1258
      6 C6          0.1453   -0.6955    0.2070 C.ar      1 <0>        -0.0654
      7 C7         -1.0517   -1.6073    0.2899 C.3       1 <0>        -0.0778
      8 C8         -1.5061   -1.9820   -1.1222 C.3       1 <0>        -0.1451
      9 C9         -2.7214   -2.9077   -1.0381 C.3       1 <0>        -0.0107
     10 N1         -3.1576   -3.2675   -2.3939 N.4       1 <0>        -0.3830
     11 C10        -3.6238   -2.0634   -3.0920 C.3       1 <0>        -0.0123
     12 C11        -4.0033   -2.4183   -4.5312 C.3       1 <0>        -0.1462
     13 C12        -5.1204   -3.4656   -4.5153 C.3       1 <0>        -0.1396
     14 C13        -4.6499   -4.6875   -3.7210 C.3       1 <0>        -0.1466
     15 C14        -4.2464   -4.2485   -2.3118 C.3       1 <0>        -0.0068
     16 C15         3.5197    1.8749   -0.0269 C.2       1 <0>         0.4605
     17 O1          3.3630    3.0735   -0.1753 O.2       1 <0>        -0.4294
     18 C16         4.8691    1.3206    0.0703 C.2       1 <0>        -0.1670
     19 C17         5.6413    0.9961   -1.1320 C.ar      1 <0>        -0.0724
     20 C18         5.2563    1.1457   -2.4835 C.ar      1 <0>        -0.0620
     21 C19         6.1056    0.7902   -3.4980 C.ar      1 <0>        -0.1366
     22 C20         7.3697    0.2719   -3.2316 C.ar      1 <0>         0.1366
     23 C21         7.7753    0.1137   -1.9161 C.ar      1 <0>        -0.0997
     24 C22         6.9244    0.4704   -0.8912 C.ar      1 <0>        -0.1029
     25 S1          7.0588    0.4258    0.8776 S.3       1 <0>         0.0979
     26 C23         5.4620    1.0902    1.3057 C.2       1 <0>        -0.0479
     27 C24         4.9036    1.3353    2.6478 C.ar      1 <0>        -0.0450
     28 C25         4.9947    0.3501    3.6357 C.ar      1 <0>        -0.0722
     29 C26         4.4720    0.5837    4.8884 C.ar      1 <0>        -0.1436
     30 C27         3.8547    1.7962    5.1711 C.ar      1 <0>         0.1283
     31 C28         3.7614    2.7781    4.1922 C.ar      1 <0>        -0.1415
     32 C29         4.2864    2.5557    2.9384 C.ar      1 <0>        -0.0727
     33 O2          3.3408    2.0221    6.4075 O.3       1 <0>        -0.4978
     34 O3          8.1980   -0.0759   -4.2518 O.3       1 <0>        -0.4911
     35 H1         -1.0332    1.0882    0.1700 H         1 <0>         0.1300
     36 H2          0.9134    2.5850    0.0298 H         1 <0>         0.1376
     37 H3          3.5149   -0.8242    0.0972 H         1 <0>         0.1318
     38 H4          1.5546   -2.3034    0.2326 H         1 <0>         0.1295
     39 H5         -0.7829   -2.5110    0.8369 H         1 <0>         0.0871
     40 H6         -1.8626   -1.0962    0.8089 H         1 <0>         0.0868
     41 H7         -1.7749   -1.0783   -1.6692 H         1 <0>         0.0898
     42 H8         -0.6952   -2.4932   -1.6412 H         1 <0>         0.0896
     43 H9         -2.4526   -3.8114   -0.4911 H         1 <0>         0.1323
     44 H10        -3.5322   -2.3966   -0.5191 H         1 <0>         0.1306
     45 H11        -4.4948   -1.6592   -2.5761 H         1 <0>         0.1285
     46 H12        -2.8288   -1.3177   -3.0997 H         1 <0>         0.1310
     47 H13        -4.3508   -1.5233   -5.0473 H         1 <0>         0.1117
     48 H14        -3.1329   -2.8224   -5.0481 H         1 <0>         0.0872
     49 H15        -6.0084   -3.0443   -4.0439 H         1 <0>         0.0817
     50 H16        -5.3554   -3.7635   -5.5371 H         1 <0>         0.0941
     51 H17        -5.4596   -5.4145   -3.6580 H         1 <0>         0.1122
     52 H18        -3.7928   -5.1387   -4.2211 H         1 <0>         0.0874
     53 H19        -3.9110   -5.1161   -1.7435 H         1 <0>         0.1299
     54 H20        -5.1041   -3.7977   -1.8126 H         1 <0>         0.1281
     55 H21         4.2808    1.5447   -2.7194 H         1 <0>         0.1265
     56 H22         5.7885    0.9140   -4.5230 H         1 <0>         0.1386
     57 H23         8.7532   -0.2875   -1.6945 H         1 <0>         0.1431
     58 H24         5.4739   -0.5926    3.4168 H         1 <0>         0.1344
     59 H25         4.5416   -0.1768    5.6521 H         1 <0>         0.1383
     60 H26         3.2806    3.7188    4.4163 H         1 <0>         0.1376
     61 H27         4.2174    3.3211    2.1796 H         1 <0>         0.1331
     62 H28         3.9670    2.4212    7.0269 H         1 <0>         0.3986
     63 H29         8.7737    0.6403   -4.5526 H         1 <0>         0.3997
     64 H30        -2.3825   -3.6685   -2.9003 H         1 <0>         0.4222
@<TRIPOS>BOND
     1    1    6 ar
     2    1    2 ar
     3    1   35 1
     4    2    3 ar
     5    2   36 1
     6    3    4 ar
     7    3   16 1
     8    4    5 ar
     9    4   37 1
    10    5    6 ar
    11    5   38 1
    12    6    7 1
    13    7    8 1
    14    7   39 1
    15    7   40 1
    16    8    9 1
    17    8   41 1
    18    8   42 1
    19    9   10 1
    20    9   43 1
    21    9   44 1
    22   10   15 1
    23   10   11 1
    24   10   64 1
    25   11   12 1
    26   11   45 1
    27   11   46 1
    28   12   13 1
    29   12   47 1
    30   12   48 1
    31   13   14 1
    32   13   49 1
    33   13   50 1
    34   14   15 1
    35   14   51 1
    36   14   52 1
    37   15   53 1
    38   15   54 1
    39   16   17 2
    40   16   18 1
    41   18   26 2
    42   18   19 1
    43   19   24 ar
    44   19   20 ar
    45   20   21 ar
    46   20   55 1
    47   21   22 ar
    48   21   56 1
    49   22   23 ar
    50   22   34 1
    51   23   24 ar
    52   23   57 1
    53   24   25 1
    54   25   26 1
    55   26   27 1
    56   27   32 ar
    57   27   28 ar
    58   28   29 ar
    59   28   58 1
    60   29   30 ar
    61   29   59 1
    62   30   31 ar
    63   30   33 1
    64   31   32 ar
    65   31   60 1
    66   32   61 1
    67   33   62 1
    68   34   63 1
@<TRIPOS>MOLECULE
CHEMBL83060
   61    65     0     0     0
SMALL
USER_CHARGES

@<TRIPOS>ATOM
      1 C1          1.0217    0.4858    0.9583 C.ar      1 <0>        -0.1644
      2 C2          2.3067    0.9963    0.8523 C.ar      1 <0>        -0.0610
      3 C3          2.4733    2.2524    0.2900 C.ar      1 <0>        -0.1323
      4 C4          1.3609    2.9494   -0.1432 C.ar      1 <0>         0.1169
      5 N1          0.1535    2.4328   -0.0260 N.ar      1 <0>        -0.4802
      6 C5         -0.0425    1.2408    0.5033 C.ar      1 <0>         0.1045
      7 C6          3.8496    2.8507    0.1532 C.3       1 <0>        -0.0624
      8 H1          3.7721    3.9190   -0.0491 H         1 <0>         0.1415
      9 C7          4.6134    2.1550   -0.9859 C.3       1 <0>         0.1501
     10 H2          5.6462    2.5032   -0.9982 H         1 <0>         0.0983
     11 O1          4.5880    0.7520   -0.7718 O.3       1 <0>        -0.3062
     12 C8          5.0995    0.1879    0.3475 C.ar      1 <0>         0.1184
     13 C9          5.4915   -1.1468    0.2754 C.ar      1 <0>        -0.1132
     14 C10         6.0062   -1.7894    1.3824 C.ar      1 <0>        -0.1059
     15 C11         6.1391   -1.1109    2.5850 C.ar      1 <0>         0.1001
     16 C12         5.7584    0.2186    2.6671 C.ar      1 <0>        -0.0898
     17 C13         5.2468    0.8679    1.5512 C.ar      1 <0>        -0.1491
     18 S1          4.8014    2.5751    1.6804 S.3       1 <0>        -0.0800
     19 O2          6.6399   -1.7473    3.6773 O.3       1 <0>        -0.4913
     20 C14         3.9570    2.4775   -2.3035 C.ar      1 <0>        -0.1056
     21 C15         2.8177    1.7971   -2.6917 C.ar      1 <0>        -0.0376
     22 C16         2.2143    2.0906   -3.8993 C.ar      1 <0>        -0.1396
     23 C17         2.7523    3.0691   -4.7225 C.ar      1 <0>         0.1260
     24 C18         3.8953    3.7507   -4.3305 C.ar      1 <0>        -0.2021
     25 C19         4.4919    3.4571   -3.1195 C.ar      1 <0>        -0.0577
     26 O3          2.1608    3.3593   -5.9111 O.3       1 <0>        -0.3266
     27 C20         2.7695    4.3782   -6.7070 C.3       1 <0>         0.0248
     28 C21         1.9691    4.5634   -7.9977 C.3       1 <0>        -0.0010
     29 N2          0.6214    5.0492   -7.6726 N.4       1 <0>        -0.3844
     30 C22        -0.1940    5.0787   -8.8928 C.3       1 <0>        -0.0070
     31 C23        -1.6218    5.5065   -8.5465 C.3       1 <0>        -0.1469
     32 C24        -1.5920    6.9021   -7.9166 C.3       1 <0>        -0.1389
     33 C25        -0.6793    6.8771   -6.6872 C.3       1 <0>        -0.1456
     34 C26         0.7135    6.3985   -7.1024 C.3       1 <0>        -0.0130
     35 H3          0.8551   -0.4913    1.3871 H         1 <0>         0.1390
     36 H4          3.1574    0.4289    1.1998 H         1 <0>         0.1381
     37 H5          1.4822    3.9286   -0.5823 H         1 <0>         0.1499
     38 H6         -1.0463    0.8502    0.5819 H         1 <0>         0.1596
     39 H7          5.3911   -1.6840   -0.6561 H         1 <0>         0.1416
     40 H8          6.3064   -2.8245    1.3125 H         1 <0>         0.1435
     41 H9          5.8594    0.7513    3.6011 H         1 <0>         0.1409
     42 H10         7.6010   -1.6838    3.7634 H         1 <0>         0.3952
     43 H11         2.3992    1.0354   -2.0505 H         1 <0>         0.1345
     44 H12         1.3247    1.5584   -4.2024 H         1 <0>         0.1349
     45 H13         4.3160    4.5128   -4.9696 H         1 <0>         0.1324
     46 H14         5.3792    3.9904   -2.8119 H         1 <0>         0.1358
     47 H15         2.7827    5.3150   -6.1500 H         1 <0>         0.0874
     48 H16         3.7909    4.0865   -6.9516 H         1 <0>         0.1102
     49 H17         2.4726    5.2891   -8.6365 H         1 <0>         0.1494
     50 H18         1.8954    3.6094   -8.5197 H         1 <0>         0.1428
     51 H19         0.2361    5.7883   -9.5996 H         1 <0>         0.1292
     52 H20        -0.2115    4.0856   -9.3417 H         1 <0>         0.1310
     53 H21        -2.2251    5.5296   -9.4540 H         1 <0>         0.1131
     54 H22        -2.0529    4.7974   -7.8399 H         1 <0>         0.0882
     55 H23        -1.2085    7.6208   -8.6408 H         1 <0>         0.0820
     56 H24        -2.6001    7.1880   -7.6164 H         1 <0>         0.0949
     57 H25        -0.6090    7.8799   -6.2657 H         1 <0>         0.1124
     58 H26        -1.0909    6.1964   -5.9420 H         1 <0>         0.0884
     59 H27         1.3660    6.3798   -6.2294 H         1 <0>         0.1271
     60 H28         1.1243    7.0800   -7.8473 H         1 <0>         0.1302
     61 H29         0.1947    4.4294   -7.0004 H         1 <0>         0.4296
@<TRIPOS>BOND
     1    1    6 ar
     2    1    2 ar
     3    1   35 1
     4    2    3 ar
     5    2   36 1
     6    3    4 ar
     7    3    7 1
     8    4    5 ar
     9    4   37 1
    10    5    6 ar
    11    6   38 1
    12    7    8 1
    13    7   18 1
    14    7    9 1
    15    9   10 1
    16    9   11 1
    17    9   20 1
    18   11   12 1
    19   12   17 ar
    20   12   13 ar
    21   13   14 ar
    22   13   39 1
    23   14   15 ar
    24   14   40 1
    25   15   16 ar
    26   15   19 1
    27   16   17 ar
    28   16   41 1
    29   17   18 1
    30   19   42 1
    31   20   25 ar
    32   20   21 ar
    33   21   22 ar
    34   21   43 1
    35   22   23 ar
    36   22   44 1
    37   23   24 ar
    38   23   26 1
    39   24   25 ar
    40   24   45 1
    41   25   46 1
    42   26   27 1
    43   27   28 1
    44   27   47 1
    45   27   48 1
    46   28   29 1
    47   28   49 1
    48   28   50 1
    49   29   34 1
    50   29   30 1
    51   29   61 1
    52   30   31 1
    53   30   51 1
    54   30   52 1
    55   31   32 1
    56   31   53 1
    57   31   54 1
    58   32   33 1
    59   32   55 1
    60   32   56 1
    61   33   34 1
    62   33   57 1
    63   33   58 1
    64   34   59 1
    65   34   60 1
@<TRIPOS>MOLECULE
CHEMBL315761
   59    63     0     0     0
SMALL
USER_CHARGES

@<TRIPOS>ATOM
      1 C1          0.2832    1.3268    0.1261 C.2       1 <0>        -0.2141
      2 C2          1.5971    1.8476    0.0874 C.2       1 <0>        -0.1828
      3 C3          2.4341    0.7946    0.0940 C.2       1 <0>        -0.0114
      4 O1          1.7009   -0.3300    0.1343 O.3       1 <0>        -0.1574
      5 C4          0.3959   -0.0133    0.1539 C.2       1 <0>        -0.0257
      6 C5          3.9391    0.8648    0.0611 C.3       1 <0>        -0.0251
      7 H1          4.2620    1.9054    0.0307 H         1 <0>         0.1549
      8 C6          4.4727    0.1136   -1.1701 C.3       1 <0>         0.1461
      9 H2          5.5603    0.0604   -1.1216 H         1 <0>         0.1002
     10 O2          3.9333   -1.1993   -1.1818 O.3       1 <0>        -0.3033
     11 C7          4.1377   -2.0679   -0.1638 C.ar      1 <0>         0.1320
     12 C8          4.0295   -3.4278   -0.4450 C.ar      1 <0>        -0.1142
     13 C9          4.2097   -4.3680    0.5484 C.ar      1 <0>        -0.1059
     14 C10         4.5013   -3.9678    1.8443 C.ar      1 <0>         0.0961
     15 C11         4.6176   -2.6182    2.1346 C.ar      1 <0>        -0.0890
     16 C12         4.4433   -1.6717    1.1334 C.ar      1 <0>        -0.1420
     17 S1          4.6316    0.0420    1.5300 S.3       1 <0>        -0.0818
     18 O3          4.6717   -4.8951    2.8241 O.3       1 <0>        -0.4918
     19 C13         4.0590    0.8415   -2.4231 C.ar      1 <0>        -0.1062
     20 C14         2.7782    0.6864   -2.9204 C.ar      1 <0>        -0.0343
     21 C15         2.3967    1.3522   -4.0691 C.ar      1 <0>        -0.1411
     22 C16         3.2997    2.1774   -4.7235 C.ar      1 <0>         0.1251
     23 C17         4.5841    2.3317   -4.2223 C.ar      1 <0>        -0.2031
     24 C18         4.9591    1.6677   -3.0703 C.ar      1 <0>        -0.0577
     25 O4          2.9269    2.8331   -5.8540 O.3       1 <0>        -0.3270
     26 C19         3.9086    3.6656   -6.4747 C.3       1 <0>         0.0249
     27 C20         3.3100    4.3157   -7.7237 C.3       1 <0>        -0.0010
     28 N1          2.2029    5.1989   -7.3332 N.4       1 <0>        -0.3843
     29 C21         1.5304    5.6998   -8.5379 C.3       1 <0>        -0.0071
     30 C22         0.3268    6.5552   -8.1363 C.3       1 <0>        -0.1468
     31 C23         0.8074    7.7371   -7.2893 C.3       1 <0>        -0.1391
     32 C24         1.5719    7.2041   -6.0741 C.3       1 <0>        -0.1454
     33 C25         2.7293    6.3246   -6.5521 C.3       1 <0>        -0.0131
     34 H3         -0.6346    1.8958    0.1361 H         1 <0>         0.1505
     35 H4          1.8753    2.8907    0.0577 H         1 <0>         0.1463
     36 H5         -0.4240   -0.7155    0.1869 H         1 <0>         0.2046
     37 H6          3.8018   -3.7494   -1.4506 H         1 <0>         0.1397
     38 H7          4.1231   -5.4192    0.3165 H         1 <0>         0.1419
     39 H8          4.8441   -2.3014    3.1419 H         1 <0>         0.1386
     40 H9          5.5844   -5.1985    2.9241 H         1 <0>         0.3935
     41 H10         2.0756    0.0439   -2.4106 H         1 <0>         0.1370
     42 H11         1.3964    1.2302   -4.4575 H         1 <0>         0.1354
     43 H12         5.2889    2.9735   -4.7300 H         1 <0>         0.1322
     44 H13         5.9574    1.7909   -2.6773 H         1 <0>         0.1360
     45 H14         4.2216    4.4414   -5.7759 H         1 <0>         0.0871
     46 H15         4.7709    3.0618   -6.7573 H         1 <0>         0.1104
     47 H16         4.0773    4.8985   -8.2332 H         1 <0>         0.1494
     48 H17         2.9375    3.5408   -8.3936 H         1 <0>         0.1428
     49 H18         2.2277    6.3042   -9.1181 H         1 <0>         0.1293
     50 H19         1.1918    4.8576   -9.1412 H         1 <0>         0.1311
     51 H20        -0.1701    6.9277   -9.0321 H         1 <0>         0.1132
     52 H21        -0.3713    5.9518   -7.5562 H         1 <0>         0.0880
     53 H22         1.4656    8.3691   -7.8855 H         1 <0>         0.0822
     54 H23        -0.0516    8.3180   -6.9534 H         1 <0>         0.0948
     55 H24         1.9649    8.0403   -5.4959 H         1 <0>         0.1123
     56 H25         0.8996    6.6141   -5.4512 H         1 <0>         0.0879
     57 H26         3.2758    5.9437   -5.6894 H         1 <0>         0.1271
     58 H27         3.4011    6.9157   -7.1746 H         1 <0>         0.1303
     59 H28         1.5428    4.6813   -6.7725 H         1 <0>         0.4294
@<TRIPOS>BOND
     1    1    5 2
     2    1    2 1
     3    1   34 1
     4    2    3 2
     5    2   35 1
     6    3    4 1
     7    3    6 1
     8    4    5 1
     9    5   36 1
    10    6    7 1
    11    6   17 1
    12    6    8 1
    13    8    9 1
    14    8   10 1
    15    8   19 1
    16   10   11 1
    17   11   16 ar
    18   11   12 ar
    19   12   13 ar
    20   12   37 1
    21   13   14 ar
    22   13   38 1
    23   14   15 ar
    24   14   18 1
    25   15   16 ar
    26   15   39 1
    27   16   17 1
    28   18   40 1
    29   19   24 ar
    30   19   20 ar
    31   20   21 ar
    32   20   41 1
    33   21   22 ar
    34   21   42 1
    35   22   23 ar
    36   22   25 1
    37   23   24 ar
    38   23   43 1
    39   24   44 1
    40   25   26 1
    41   26   27 1
    42   26   45 1
    43   26   46 1
    44   27   28 1
    45   27   47 1
    46   27   48 1
    47   28   33 1
    48   28   29 1
    49   28   59 1
    50   29   30 1
    51   29   49 1
    52   29   50 1
    53   30   31 1
    54   30   51 1
    55   30   52 1
    56   31   32 1
    57   31   53 1
    58   31   54 1
    59   32   33 1
    60   32   55 1
    61   32   56 1
    62   33   57 1
    63   33   58 1
@<TRIPOS>MOLECULE
CHEMBL31127
   42    45     0     0     0
SMALL
USER_CHARGES

@<TRIPOS>ATOM
      1 C1         -0.0167    1.3784    0.0096 C.ar      1 <0>        -0.0807
      2 C2          1.1695    2.0865    0.0021 C.ar      1 <0>        -0.1425
      3 C3          2.3802    1.4093   -0.0131 C.ar      1 <0>         0.1139
      4 C4          2.3963    0.0221   -0.0206 C.ar      1 <0>        -0.1443
      5 C5          1.2074   -0.6814   -0.0130 C.ar      1 <0>        -0.0941
      6 C6          0.0021   -0.0041    0.0020 C.ar      1 <0>        -0.0853
      7 C7         -1.2934   -0.7740    0.0107 C.3       1 <0>        -0.1178
      8 H1         -2.1359   -0.0825    0.0227 H         1 <0>         0.1260
      9 C8         -1.3743   -1.6755   -1.2300 C.3       1 <0>         0.1537
     10 H2         -2.3183   -2.2204   -1.2227 H         1 <0>         0.0953
     11 O1         -0.2890   -2.6025   -1.2119 O.3       1 <0>        -0.2963
     12 C9         -0.0943   -3.3535   -0.1030 C.ar      1 <0>         0.1946
     13 C10         0.6058   -4.5462   -0.1877 C.ar      1 <0>        -0.1910
     14 C11         0.8090   -5.3113    0.9514 C.ar      1 <0>         0.1820
     15 C12         0.3154   -4.8912    2.1842 C.ar      1 <0>        -0.1865
     16 C13        -0.3782   -3.7189    2.2848 C.ar      1 <0>        -0.0067
     17 C14        -0.5937   -2.9395    1.1446 C.ar      1 <0>        -0.2588
     18 C15        -1.3492   -1.6784    1.2290 C.2       1 <0>         0.4119
     19 O2         -1.9833   -1.3771    2.2187 O.2       1 <0>        -0.4317
     20 O3          1.4941   -6.4790    0.8639 O.3       1 <0>        -0.4930
     21 C16        -1.2923   -0.8282   -2.4735 C.ar      1 <0>        -0.1002
     22 C17        -0.0584   -0.4699   -2.9843 C.ar      1 <0>        -0.0631
     23 C18         0.0196    0.3071   -4.1238 C.ar      1 <0>        -0.1460
     24 C19        -1.1415    0.7276   -4.7561 C.ar      1 <0>         0.1178
     25 C20        -2.3784    0.3663   -4.2418 C.ar      1 <0>        -0.1457
     26 C21        -2.4509   -0.4151   -3.1049 C.ar      1 <0>        -0.0849
     27 O4         -1.0675    1.4924   -5.8770 O.3       1 <0>        -0.4992
     28 O5          3.5484    2.1036   -0.0209 O.3       1 <0>        -0.4988
     29 H3         -0.9594    1.9052    0.0259 H         1 <0>         0.1290
     30 H4          1.1543    3.1664    0.0076 H         1 <0>         0.1319
     31 H5          3.3375   -0.5074   -0.0328 H         1 <0>         0.1305
     32 H6          1.2194   -1.7613   -0.0189 H         1 <0>         0.1334
     33 H7          0.9923   -4.8800   -1.1393 H         1 <0>         0.1478
     34 H8          0.4821   -5.4947    3.0642 H         1 <0>         0.1405
     35 H9         -0.7595   -3.3955    3.2421 H         1 <0>         0.1427
     36 H10         2.4479   -6.3861    0.9935 H         1 <0>         0.4019
     37 H11         0.8452   -0.7974   -2.4917 H         1 <0>         0.1322
     38 H12         0.9836    0.5873   -4.5220 H         1 <0>         0.1308
     39 H13        -3.2837    0.6924   -4.7322 H         1 <0>         0.1334
     40 H14        -3.4134   -0.7003   -2.7067 H         1 <0>         0.1308
     41 H15        -1.0394    0.9838   -6.6990 H         1 <0>         0.3937
     42 H16         3.8951    2.3001    0.8601 H         1 <0>         0.3927
@<TRIPOS>BOND
     1    1    6 ar
     2    1    2 ar
     3    1   29 1
     4    2    3 ar
     5    2   30 1
     6    3    4 ar
     7    3   28 1
     8    4    5 ar
     9    4   31 1
    10    5    6 ar
    11    5   32 1
    12    6    7 1
    13    7    8 1
    14    7   18 1
    15    7    9 1
    16    9   10 1
    17    9   11 1
    18    9   21 1
    19   11   12 1
    20   12   17 ar
    21   12   13 ar
    22   13   14 ar
    23   13   33 1
    24   14   15 ar
    25   14   20 1
    26   15   16 ar
    27   15   34 1
    28   16   17 ar
    29   16   35 1
    30   17   18 1
    31   18   19 2
    32   20   36 1
    33   21   26 ar
    34   21   22 ar
    35   22   23 ar
    36   22   37 1
    37   23   24 ar
    38   23   38 1
    39   24   25 ar
    40   24   27 1
    41   25   26 ar
    42   25   39 1
    43   26   40 1
    44   27   41 1
    45   28   42 1
@<TRIPOS>MOLECULE
CHEMBL328675
   39    42     0     0     0
SMALL
USER_CHARGES

@<TRIPOS>ATOM
      1 C1         -0.0167    1.3786    0.0115 C.ar      1 <0>        -0.1760
      2 C2          0.0020   -0.0039   -0.0135 C.ar      1 <0>        -0.0711
      3 C3          1.2063   -0.6796   -0.0295 C.ar      1 <0>        -0.1947
      4 C4          2.3998    0.0311   -0.0206 C.ar      1 <0>         0.2231
      5 C5          2.3775    1.4198    0.0044 C.ar      1 <0>        -0.1941
      6 C6          1.1696    2.0892    0.0204 C.ar      1 <0>        -0.0716
      7 N1          3.6196   -0.6492   -0.0363 N.pl3     1 <0>        -0.6215
      8 C7          4.8976    0.0732   -0.1486 C.3       1 <0>         0.1181
      9 C8          5.6827   -0.1583    1.1416 C.3       1 <0>        -0.1012
     10 C9          5.6883   -1.6183    1.5112 C.ar      1 <0>        -0.0421
     11 C10         6.6788   -2.0578    2.3800 C.ar      1 <0>        -0.1474
     12 C11         6.7354   -3.3849    2.7686 C.ar      1 <0>         0.1146
     13 C12         5.7940   -4.2832    2.2868 C.ar      1 <0>        -0.1455
     14 C13         4.8140   -3.8458    1.4214 C.ar      1 <0>        -0.0853
     15 C14         4.7614   -2.5150    1.0278 C.ar      1 <0>        -0.1006
     16 C15         3.6790   -2.1112    0.0645 C.3       1 <0>         0.2838
     17 C16         3.9779   -2.6957   -1.2920 C.2       1 <0>        -0.1524
     18 C17         3.4582   -3.8018   -1.8783 C.2       1 <0>        -0.1490
     19 C18         3.8852   -4.1521   -3.1454 C.2       1 <0>        -0.1563
     20 C19         4.8109   -3.3793   -3.7643 C.2       1 <0>        -0.1792
     21 S1          5.1027   -2.1064   -2.5469 S.3       1 <0>         0.0542
     22 O1          7.7090   -3.8065    3.6179 O.3       1 <0>        -0.4986
     23 H1         -0.9599    1.9047    0.0194 H         1 <0>         0.1184
     24 H2         -0.9263   -0.5558   -0.0200 H         1 <0>         0.1208
     25 H3          1.2202   -1.7594   -0.0486 H         1 <0>         0.1186
     26 H4          3.3036    1.9753    0.0118 H         1 <0>         0.1224
     27 H5          1.1515    3.1689    0.0400 H         1 <0>         0.1214
     28 H6          5.4637   -0.3087   -0.9983 H         1 <0>         0.0712
     29 H7          4.7088    1.1387   -0.2793 H         1 <0>         0.0959
     30 H8          6.7094    0.1801    1.0021 H         1 <0>         0.0890
     31 H9          5.2239    0.4139    1.9479 H         1 <0>         0.0865
     32 H10         7.4107   -1.3581    2.7557 H         1 <0>         0.1302
     33 H11         5.8285   -5.3197    2.5884 H         1 <0>         0.1319
     34 H12         4.0806   -4.5443    1.0463 H         1 <0>         0.1278
     35 H13         2.7199   -2.4896    0.4183 H         1 <0>         0.1165
     36 H14         2.7219   -4.4006   -1.3629 H         1 <0>         0.1320
     37 H15         3.4873   -5.0288   -3.6349 H         1 <0>         0.1335
     38 H16         5.2540   -3.4999   -4.7418 H         1 <0>         0.1842
     39 H17         7.4676   -3.7492    4.5525 H         1 <0>         0.3926
@<TRIPOS>BOND
     1    1    6 ar
     2    1    2 ar
     3    1   23 1
     4    2    3 ar
     5    2   24 1
     6    3    4 ar
     7    3   25 1
     8    4    5 ar
     9    4    7 1
    10    5    6 ar
    11    5   26 1
    12    6   27 1
    13    7   16 1
    14    7    8 1
    15    8    9 1
    16    8   28 1
    17    8   29 1
    18    9   10 1
    19    9   30 1
    20    9   31 1
    21   10   15 ar
    22   10   11 ar
    23   11   12 ar
    24   11   32 1
    25   12   13 ar
    26   12   22 1
    27   13   14 ar
    28   13   33 1
    29   14   15 ar
    30   14   34 1
    31   15   16 1
    32   16   17 1
    33   16   35 1
    34   17   21 1
    35   17   18 2
    36   18   19 1
    37   18   36 1
    38   19   20 2
    39   19   37 1
    40   20   21 1
    41   20   38 1
    42   22   39 1
@<TRIPOS>MOLECULE
CHEMBL328675__1
   39    42     0     0     0
SMALL
USER_CHARGES

@<TRIPOS>ATOM
      1 C1         -0.0166    1.3788    0.0114 C.ar      1 <0>        -0.1758
      2 C2          0.0147    0.0134    0.2284 C.ar      1 <0>        -0.0712
      3 C3          1.2191   -0.6623    0.2131 C.ar      1 <0>        -0.1945
      4 C4          2.3998    0.0311   -0.0206 C.ar      1 <0>         0.2227
      5 C5          2.3648    1.4026   -0.2381 C.ar      1 <0>        -0.1938
      6 C6          1.1570    2.0721   -0.2214 C.ar      1 <0>        -0.0717
      7 N1          3.6196   -0.6492   -0.0363 N.pl3     1 <0>        -0.6219
      8 C7          4.8976    0.0732   -0.1486 C.3       1 <0>         0.1185
      9 C8          5.5518   -0.3325   -1.4684 C.3       1 <0>        -0.1012
     10 C9          5.5303   -1.8286   -1.6399 C.ar      1 <0>        -0.0417
     11 C10         6.4323   -2.3860   -2.5371 C.ar      1 <0>        -0.1476
     12 C11         6.4593   -3.7534   -2.7493 C.ar      1 <0>         0.1145
     13 C12         5.5765   -4.5736   -2.0614 C.ar      1 <0>        -0.1456
     14 C13         4.6841   -4.0187   -1.1691 C.ar      1 <0>        -0.0855
     15 C14         4.6621   -2.6471   -0.9521 C.ar      1 <0>        -0.1004
     16 C15         3.6790   -2.1112    0.0645 C.3       1 <0>         0.2835
     17 C16         4.1221   -2.5007    1.4512 C.2       1 <0>        -0.1517
     18 C17         3.6824   -3.5159    2.2343 C.2       1 <0>        -0.1489
     19 C18         4.2410   -3.6865    3.4871 C.2       1 <0>        -0.1560
     20 C19         5.2121   -2.8336    3.8955 C.2       1 <0>        -0.1797
     21 S1          5.3681   -1.7494    2.4858 S.3       1 <0>         0.0533
     22 O1          7.3463   -4.2903   -3.6280 O.3       1 <0>        -0.4987
     23 H1         -0.9602    1.9041    0.0195 H         1 <0>         0.1184
     24 H2         -0.9036   -0.5250    0.4103 H         1 <0>         0.1209
     25 H3          1.2429   -1.7286    0.3829 H         1 <0>         0.1186
     26 H4          3.2810    1.9448   -0.4198 H         1 <0>         0.1224
     27 H5          1.1290    3.1385   -0.3905 H         1 <0>         0.1214
     28 H6          4.7157    1.1478   -0.1422 H         1 <0>         0.0958
     29 H7          5.5480   -0.1964    0.6835 H         1 <0>         0.0709
     30 H8          5.0112    0.1308   -2.2938 H         1 <0>         0.0869
     31 H9          6.5850    0.0146   -1.4780 H         1 <0>         0.0887
     32 H10         7.1184   -1.7471   -3.0733 H         1 <0>         0.1303
     33 H11         5.5882   -5.6412   -2.2243 H         1 <0>         0.1319
     34 H12         3.9959   -4.6563   -0.6340 H         1 <0>         0.1278
     35 H13         2.6911   -2.5286   -0.1304 H         1 <0>         0.1169
     36 H14         2.9068   -4.1813    1.8848 H         1 <0>         0.1322
     37 H15         3.9084   -4.4872    4.1310 H         1 <0>         0.1335
     38 H16         5.7538   -2.8168    4.8297 H         1 <0>         0.1841
     39 H17         8.1936   -4.5350   -3.2314 H         1 <0>         0.3926
@<TRIPOS>BOND
     1    1    6 ar
     2    1    2 ar
     3    1   23 1
     4    2    3 ar
     5    2   24 1
     6    3    4 ar
     7    3   25 1
     8    4    5 ar
     9    4    7 1
    10    5    6 ar
    11    5   26 1
    12    6   27 1
    13    7   16 1
    14    7    8 1
    15    8    9 1
    16    8   28 1
    17    8   29 1
    18    9   10 1
    19    9   30 1
    20    9   31 1
    21   10   15 ar
    22   10   11 ar
    23   11   12 ar
    24   11   32 1
    25   12   13 ar
    26   12   22 1
    27   13   14 ar
    28   13   33 1
    29   14   15 ar
    30   14   34 1
    31   15   16 1
    32   16   17 1
    33   16   35 1
    34   17   21 1
    35   17   18 2
    36   18   19 1
    37   18   36 1
    38   19   20 2
    39   19   37 1
    40   20   21 1
    41   20   38 1
    42   22   39 1
@<TRIPOS>MOLECULE
CHEMBL31089
   68    72     0     0     0
SMALL
USER_CHARGES

@<TRIPOS>ATOM
      1 C1         -1.0367    1.3253    0.1879 C.3       1 <0>        -0.1355
      2 C2         -0.8279   -0.1662    0.1448 C.ar      1 <0>        -0.0474
      3 C3         -0.8822   -0.7582   -1.0923 C.ar      1 <0>        -0.1400
      4 C4         -0.6539   -2.1205   -1.2522 C.ar      1 <0>         0.1197
      5 C5         -0.3205   -2.8914   -0.1613 C.ar      1 <0>        -0.1384
      6 C6         -0.2558   -2.3030    1.1099 C.ar      1 <0>        -0.0348
      7 C7         -0.6245   -0.9409    1.2829 C.ar      1 <0>        -0.0364
      8 C8         -0.8217   -0.4637    2.6555 C.ar      1 <0>        -0.0201
      9 C9         -1.6129    0.6352    2.9896 C.ar      1 <0>        -0.1040
     10 C10        -1.6218    1.1250    4.2656 C.ar      1 <0>        -0.1069
     11 C11        -0.9007    0.4960    5.2702 C.ar      1 <0>        -0.1115
     12 C12        -0.2336   -0.6669    5.0104 C.ar      1 <0>        -0.1013
     13 C13        -0.2472   -1.2039    3.7213 C.ar      1 <0>        -0.0372
     14 C14         0.2525   -2.5561    3.4598 C.ar      1 <0>        -0.0388
     15 C15         0.1981   -3.0711    2.2022 C.ar      1 <0>        -0.0848
     16 C16         0.8175   -3.3788    4.5541 C.ar      1 <0>        -0.0586
     17 C17         1.7885   -2.8439    5.4011 C.ar      1 <0>        -0.0674
     18 C18         2.3124   -3.6126    6.4186 C.ar      1 <0>        -0.1371
     19 C19         1.8747   -4.9177    6.6010 C.ar      1 <0>         0.1141
     20 C20         0.9087   -5.4535    5.7595 C.ar      1 <0>        -0.1982
     21 C21         0.3759   -4.6884    4.7438 C.ar      1 <0>        -0.0651
     22 O1          2.3931   -5.6724    7.6048 O.3       1 <0>        -0.3273
     23 C22         1.8979   -7.0065    7.7356 C.3       1 <0>         0.0252
     24 C23         2.5936   -7.6958    8.9111 C.3       1 <0>        -0.0010
     25 N1          2.2312   -7.0156   10.1617 N.4       1 <0>        -0.3842
     26 C24         3.0213   -7.5723   11.2664 C.3       1 <0>        -0.0070
     27 C25         2.7067   -6.8127   12.5569 C.3       1 <0>        -0.1467
     28 C26         1.2149   -6.9513   12.8737 C.3       1 <0>        -0.1390
     29 C27         0.4003   -6.4360   11.6837 C.3       1 <0>        -0.1453
     30 C28         0.8003   -7.2096   10.4255 C.3       1 <0>        -0.0133
     31 C29        -0.8507    1.0963    6.6502 C.3       1 <0>         0.1436
     32 C30        -2.0754    0.6438    7.4479 C.3       1 <0>        -0.1817
     33 O2         -0.8477    2.5218    6.5498 O.3       1 <0>        -0.5540
     34 O3         -0.7577   -2.6904   -2.4807 O.3       1 <0>        -0.4959
     35 H1         -0.0695    1.8267    0.2211 H         1 <0>         0.0783
     36 H2         -1.5798    1.6420   -0.7025 H         1 <0>         0.0740
     37 H3         -1.6119    1.5861    1.0763 H         1 <0>         0.0822
     38 H4         -1.1071   -0.1455   -1.9539 H         1 <0>         0.1346
     39 H5         -0.1095   -3.9439   -0.2840 H         1 <0>         0.1356
     40 H6         -2.2940    1.0776    2.2779 H         1 <0>         0.1392
     41 H7         -2.1970    2.0107    4.4919 H         1 <0>         0.1263
     42 H8          0.3052   -1.1489    5.8130 H         1 <0>         0.1290
     43 H9          0.5092   -4.0928    2.0364 H         1 <0>         0.1293
     44 H10         2.1297   -1.8291    5.2596 H         1 <0>         0.1393
     45 H11         3.0644   -3.1993    7.0745 H         1 <0>         0.1363
     46 H12         0.5707   -6.4690    5.9040 H         1 <0>         0.1298
     47 H13        -0.3789   -5.1041    4.0927 H         1 <0>         0.1335
     48 H14         0.8231   -6.9792    7.9148 H         1 <0>         0.0864
     49 H15         2.0994   -7.5604    6.8187 H         1 <0>         0.1097
     50 H16         2.2781   -8.7380    8.9596 H         1 <0>         0.1490
     51 H17         3.6737   -7.6493    8.7720 H         1 <0>         0.1429
     52 H18         2.7726   -8.6257   11.3956 H         1 <0>         0.1291
     53 H19         4.0827   -7.4758   11.0380 H         1 <0>         0.1311
     54 H20         3.2930   -7.2286   13.3763 H         1 <0>         0.1131
     55 H21         2.9552   -5.7591   12.4289 H         1 <0>         0.0881
     56 H22         0.9761   -7.9998   13.0522 H         1 <0>         0.0821
     57 H23         0.9746   -6.3654   13.7609 H         1 <0>         0.0948
     58 H24        -0.6620   -6.5828   11.8789 H         1 <0>         0.1122
     59 H25         0.6009   -5.3747   11.5376 H         1 <0>         0.0879
     60 H26         0.2221   -6.8454    9.5764 H         1 <0>         0.1272
     61 H27         0.5991   -8.2707   10.5726 H         1 <0>         0.1303
     62 H28         0.0557    0.7659    7.1575 H         1 <0>         0.1060
     63 H29        -2.0777   -0.4435    7.5245 H         1 <0>         0.0656
     64 H30        -2.0392    1.0784    8.4469 H         1 <0>         0.0698
     65 H31        -2.9818    0.9742    6.9406 H         1 <0>         0.0626
     66 H32        -1.6267    2.8866    6.1080 H         1 <0>         0.3766
     67 H33         0.0684   -2.6948   -2.9833 H         1 <0>         0.3950
     68 H34         2.4255   -6.0293   10.0755 H         1 <0>         0.4293
@<TRIPOS>BOND
     1    1    2 1
     2    1   35 1
     3    1   36 1
     4    1   37 1
     5    2    7 ar
     6    2    3 ar
     7    3    4 ar
     8    3   38 1
     9    4    5 ar
    10    4   34 1
    11    5    6 ar
    12    5   39 1
    13    6   15 ar
    14    6    7 ar
    15    7    8 ar
    16    8   13 ar
    17    8    9 ar
    18    9   10 ar
    19    9   40 1
    20   10   11 ar
    21   10   41 1
    22   11   12 ar
    23   11   31 1
    24   12   13 ar
    25   12   42 1
    26   13   14 ar
    27   14   15 ar
    28   14   16 1
    29   15   43 1
    30   16   21 ar
    31   16   17 ar
    32   17   18 ar
    33   17   44 1
    34   18   19 ar
    35   18   45 1
    36   19   20 ar
    37   19   22 1
    38   20   21 ar
    39   20   46 1
    40   21   47 1
    41   22   23 1
    42   23   24 1
    43   23   48 1
    44   23   49 1
    45   24   25 1
    46   24   50 1
    47   24   51 1
    48   25   30 1
    49   25   26 1
    50   25   68 1
    51   26   27 1
    52   26   52 1
    53   26   53 1
    54   27   28 1
    55   27   54 1
    56   27   55 1
    57   28   29 1
    58   28   56 1
    59   28   57 1
    60   29   30 1
    61   29   58 1
    62   29   59 1
    63   30   60 1
    64   30   61 1
    65   31   32 1
    66   31   33 1
    67   31   62 1
    68   32   63 1
    69   32   64 1
    70   32   65 1
    71   33   66 1
    72   34   67 1
@<TRIPOS>MOLECULE
CHEMBL31089__1
   68    72     0     0     0
SMALL
USER_CHARGES

@<TRIPOS>ATOM
      1 C1         -1.0367    1.3253    0.1879 C.3       1 <0>        -0.1353
      2 C2         -0.8279   -0.1662    0.1448 C.ar      1 <0>        -0.0477
      3 C3         -0.8822   -0.7582   -1.0923 C.ar      1 <0>        -0.1400
      4 C4         -0.6539   -2.1205   -1.2522 C.ar      1 <0>         0.1197
      5 C5         -0.3205   -2.8914   -0.1613 C.ar      1 <0>        -0.1382
      6 C6         -0.2558   -2.3030    1.1099 C.ar      1 <0>        -0.0346
      7 C7         -0.6245   -0.9409    1.2829 C.ar      1 <0>        -0.0366
      8 C8         -0.8217   -0.4637    2.6555 C.ar      1 <0>        -0.0203
      9 C9         -1.6129    0.6352    2.9896 C.ar      1 <0>        -0.1043
     10 C10        -1.6218    1.1250    4.2656 C.ar      1 <0>        -0.1074
     11 C11        -0.9007    0.4960    5.2702 C.ar      1 <0>        -0.1111
     12 C12        -0.2336   -0.6669    5.0104 C.ar      1 <0>        -0.1004
     13 C13        -0.2472   -1.2039    3.7213 C.ar      1 <0>        -0.0372
     14 C14         0.2525   -2.5561    3.4598 C.ar      1 <0>        -0.0384
     15 C15         0.1981   -3.0711    2.2022 C.ar      1 <0>        -0.0850
     16 C16         0.8175   -3.3788    4.5541 C.ar      1 <0>        -0.0587
     17 C17         1.7885   -2.8439    5.4011 C.ar      1 <0>        -0.0675
     18 C18         2.3124   -3.6126    6.4186 C.ar      1 <0>        -0.1373
     19 C19         1.8747   -4.9177    6.6010 C.ar      1 <0>         0.1143
     20 C20         0.9087   -5.4535    5.7595 C.ar      1 <0>        -0.1979
     21 C21         0.3759   -4.6884    4.7438 C.ar      1 <0>        -0.0648
     22 O1          2.3931   -5.6724    7.6048 O.3       1 <0>        -0.3273
     23 C22         1.8979   -7.0065    7.7356 C.3       1 <0>         0.0251
     24 C23         2.5936   -7.6958    8.9111 C.3       1 <0>        -0.0009
     25 N1          2.2312   -7.0156   10.1617 N.4       1 <0>        -0.3842
     26 C24         3.0213   -7.5723   11.2664 C.3       1 <0>        -0.0070
     27 C25         2.7067   -6.8127   12.5569 C.3       1 <0>        -0.1467
     28 C26         1.2149   -6.9513   12.8737 C.3       1 <0>        -0.1390
     29 C27         0.4003   -6.4360   11.6837 C.3       1 <0>        -0.1455
     30 C28         0.8003   -7.2096   10.4255 C.3       1 <0>        -0.0133
     31 C29        -0.8507    1.0963    6.6502 C.3       1 <0>         0.1441
     32 C30         0.1759    2.2305    6.6761 C.3       1 <0>        -0.1827
     33 O2         -2.1388    1.6119    6.9923 O.3       1 <0>        -0.5557
     34 O3         -0.7577   -2.6904   -2.4807 O.3       1 <0>        -0.4958
     35 H1         -0.0695    1.8267    0.2211 H         1 <0>         0.0778
     36 H2         -1.5798    1.6420   -0.7025 H         1 <0>         0.0740
     37 H3         -1.6119    1.5861    1.0763 H         1 <0>         0.0822
     38 H4         -1.1071   -0.1455   -1.9539 H         1 <0>         0.1345
     39 H5         -0.1095   -3.9439   -0.2840 H         1 <0>         0.1357
     40 H6         -2.2940    1.0776    2.2779 H         1 <0>         0.1394
     41 H7         -2.1970    2.0107    4.4919 H         1 <0>         0.1262
     42 H8          0.3052   -1.1489    5.8130 H         1 <0>         0.1290
     43 H9          0.5092   -4.0928    2.0364 H         1 <0>         0.1293
     44 H10         2.1297   -1.8291    5.2596 H         1 <0>         0.1388
     45 H11         3.0644   -3.1993    7.0745 H         1 <0>         0.1361
     46 H12         0.5707   -6.4690    5.9040 H         1 <0>         0.1300
     47 H13        -0.3789   -5.1041    4.0927 H         1 <0>         0.1337
     48 H14         0.8231   -6.9792    7.9148 H         1 <0>         0.0866
     49 H15         2.0994   -7.5604    6.8187 H         1 <0>         0.1097
     50 H16         2.2781   -8.7380    8.9596 H         1 <0>         0.1490
     51 H17         3.6737   -7.6493    8.7720 H         1 <0>         0.1427
     52 H18         2.7726   -8.6257   11.3956 H         1 <0>         0.1291
     53 H19         4.0827   -7.4758   11.0380 H         1 <0>         0.1310
     54 H20         3.2930   -7.2286   13.3763 H         1 <0>         0.1131
     55 H21         2.9552   -5.7591   12.4289 H         1 <0>         0.0880
     56 H22         0.9761   -7.9998   13.0522 H         1 <0>         0.0821
     57 H23         0.9746   -6.3654   13.7609 H         1 <0>         0.0948
     58 H24        -0.6620   -6.5828   11.8789 H         1 <0>         0.1125
     59 H25         0.6009   -5.3747   11.5376 H         1 <0>         0.0880
     60 H26         0.2221   -6.8454    9.5764 H         1 <0>         0.1274
     61 H27         0.5991   -8.2707   10.5726 H         1 <0>         0.1303
     62 H28        -0.5634    0.3296    7.3697 H         1 <0>         0.1042
     63 H29        -0.1114    2.9972    5.9566 H         1 <0>         0.0631
     64 H30         0.2121    2.6650    7.6751 H         1 <0>         0.0704
     65 H31         1.1584    1.8372    6.4152 H         1 <0>         0.0678
     66 H32        -2.4588    2.3002    6.3932 H         1 <0>         0.3769
     67 H33         0.0684   -2.6948   -2.9833 H         1 <0>         0.3950
     68 H34         2.4255   -6.0293   10.0755 H         1 <0>         0.4293
@<TRIPOS>BOND
     1    1    2 1
     2    1   35 1
     3    1   36 1
     4    1   37 1
     5    2    7 ar
     6    2    3 ar
     7    3    4 ar
     8    3   38 1
     9    4    5 ar
    10    4   34 1
    11    5    6 ar
    12    5   39 1
    13    6   15 ar
    14    6    7 ar
    15    7    8 ar
    16    8   13 ar
    17    8    9 ar
    18    9   10 ar
    19    9   40 1
    20   10   11 ar
    21   10   41 1
    22   11   12 ar
    23   11   31 1
    24   12   13 ar
    25   12   42 1
    26   13   14 ar
    27   14   15 ar
    28   14   16 1
    29   15   43 1
    30   16   21 ar
    31   16   17 ar
    32   17   18 ar
    33   17   44 1
    34   18   19 ar
    35   18   45 1
    36   19   20 ar
    37   19   22 1
    38   20   21 ar
    39   20   46 1
    40   21   47 1
    41   22   23 1
    42   23   24 1
    43   23   48 1
    44   23   49 1
    45   24   25 1
    46   24   50 1
    47   24   51 1
    48   25   30 1
    49   25   26 1
    50   25   68 1
    51   26   27 1
    52   26   52 1
    53   26   53 1
    54   27   28 1
    55   27   54 1
    56   27   55 1
    57   28   29 1
    58   28   56 1
    59   28   57 1
    60   29   30 1
    61   29   58 1
    62   29   59 1
    63   30   60 1
    64   30   61 1
    65   31   32 1
    66   31   33 1
    67   31   62 1
    68   32   63 1
    69   32   64 1
    70   32   65 1
    71   33   66 1
    72   34   67 1
@<TRIPOS>MOLECULE
CHEMBL44426
   67    71     0     0     0
SMALL
USER_CHARGES

@<TRIPOS>ATOM
      1 C1          0.2082    1.8485    0.1393 C.3       1 <0>        -0.0832
      2 C2          0.1381    0.3434    0.1696 C.2       1 <0>        -0.1420
      3 C3          0.0467   -0.5467   -0.9866 C.ar      1 <0>        -0.0879
      4 C4         -0.0027   -0.3350   -2.3680 C.ar      1 <0>        -0.0927
      5 C5         -0.0901   -1.4165   -3.2209 C.ar      1 <0>         0.0783
      6 C6         -0.1290   -2.7118   -2.7105 C.ar      1 <0>        -0.1157
      7 C7         -0.0810   -2.9325   -1.3519 C.ar      1 <0>        -0.1165
      8 C8          0.0072   -1.8570   -0.4747 C.ar      1 <0>         0.1036
      9 N1          0.0706   -1.7643    0.9007 N.pl3     1 <0>        -0.4723
     10 C9          0.1538   -0.4432    1.2745 C.2       1 <0>         0.1156
     11 C10         0.2436    0.0448    2.6674 C.ar      1 <0>        -0.0360
     12 C11        -0.5862   -0.4935    3.6523 C.ar      1 <0>        -0.0978
     13 C12        -0.4995   -0.0359    4.9498 C.ar      1 <0>        -0.1404
     14 C13         0.4118    0.9593    5.2775 C.ar      1 <0>         0.1145
     15 C14         1.2388    1.4976    4.3004 C.ar      1 <0>        -0.1416
     16 C15         1.1624    1.0409    3.0020 C.ar      1 <0>        -0.0783
     17 O1          0.4943    1.4077    6.5574 O.3       1 <0>        -0.4956
     18 C16         0.0568   -2.9019    1.8236 C.3       1 <0>         0.1426
     19 C17         1.4701   -3.3582    2.0796 C.ar      1 <0>        -0.1307
     20 C18         2.0446   -4.3158    1.2643 C.ar      1 <0>        -0.0557
     21 C19         3.3398   -4.7360    1.4972 C.ar      1 <0>        -0.1409
     22 C20         4.0643   -4.1961    2.5498 C.ar      1 <0>         0.1224
     23 C21         3.4858   -3.2350    3.3662 C.ar      1 <0>        -0.2024
     24 C22         2.1921   -2.8144    3.1259 C.ar      1 <0>        -0.0534
     25 O2          5.3385   -4.6082    2.7813 O.3       1 <0>        -0.3275
     26 C23         6.0242   -4.0089    3.8825 C.3       1 <0>         0.0256
     27 C24         7.4342   -4.5942    3.9848 C.3       1 <0>        -0.0007
     28 N2          8.1981   -4.2447    2.7797 N.4       1 <0>        -0.3843
     29 C25         9.4936   -4.9342    2.8063 C.3       1 <0>        -0.0070
     30 C26        10.2599   -4.6380    1.5154 C.3       1 <0>        -0.1467
     31 C27        10.4859   -3.1280    1.3973 C.3       1 <0>        -0.1389
     32 C28         9.1320   -2.4139    1.4454 C.3       1 <0>        -0.1454
     33 C29         8.4075   -2.7924    2.7389 C.3       1 <0>        -0.0130
     34 O3         -0.1389   -1.2166   -4.5651 O.3       1 <0>        -0.4958
     35 H1          1.2504    2.1626    0.0828 H         1 <0>         0.0648
     36 H2         -0.3310    2.2198   -0.7321 H         1 <0>         0.0681
     37 H3         -0.2441    2.2516    1.0454 H         1 <0>         0.0666
     38 H4          0.0270    0.6689   -2.7651 H         1 <0>         0.1302
     39 H5         -0.1978   -3.5511   -3.3866 H         1 <0>         0.1330
     40 H6         -0.1122   -3.9414   -0.9676 H         1 <0>         0.1214
     41 H7         -1.2955   -1.2673    3.3981 H         1 <0>         0.1288
     42 H8         -1.1415   -0.4516    5.7123 H         1 <0>         0.1347
     43 H9          1.9461    2.2717    4.5591 H         1 <0>         0.1344
     44 H10         1.8095    1.4564    2.2437 H         1 <0>         0.1327
     45 H11         1.1269    0.9220    7.1043 H         1 <0>         0.3923
     46 H12        -0.4039   -2.6010    2.7645 H         1 <0>         0.1036
     47 H13        -0.5149   -3.7194    1.3842 H         1 <0>         0.1001
     48 H14         1.4801   -4.7359    0.4449 H         1 <0>         0.1351
     49 H15         3.7878   -5.4846    0.8605 H         1 <0>         0.1354
     50 H16         4.0478   -2.8132    4.1863 H         1 <0>         0.1284
     51 H17         1.7427   -2.0631    3.7584 H         1 <0>         0.1294
     52 H18         6.0883   -2.9318    3.7280 H         1 <0>         0.0862
     53 H19         5.4788   -4.2119    4.8041 H         1 <0>         0.1095
     54 H20         7.9342   -4.1859    4.8630 H         1 <0>         0.1493
     55 H21         7.3718   -5.6787    4.0736 H         1 <0>         0.1428
     56 H22        10.0732   -4.5847    3.6607 H         1 <0>         0.1294
     57 H23         9.3312   -6.0085    2.8935 H         1 <0>         0.1312
     58 H24        11.2222   -5.1494    1.5379 H         1 <0>         0.1134
     59 H25         9.6813   -4.9874    0.6603 H         1 <0>         0.0879
     60 H26        11.1076   -2.7866    2.2250 H         1 <0>         0.0823
     61 H27        10.9815   -2.9063    0.4521 H         1 <0>         0.0950
     62 H28         9.2881   -1.3354    1.4179 H         1 <0>         0.1125
     63 H29         8.5299   -2.7171    0.5889 H         1 <0>         0.0877
     64 H30         7.4432   -2.2856    2.7765 H         1 <0>         0.1265
     65 H31         9.0102   -2.4886    3.5948 H         1 <0>         0.1305
     66 H32         0.7286   -1.2000   -4.9921 H         1 <0>         0.3873
     67 H33         7.6830   -4.5323    1.9611 H         1 <0>         0.4293
@<TRIPOS>BOND
     1    1    2 1
     2    1   35 1
     3    1   36 1
     4    1   37 1
     5    2   10 2
     6    2    3 1
     7    3    8 ar
     8    3    4 ar
     9    4    5 ar
    10    4   38 1
    11    5    6 ar
    12    5   34 1
    13    6    7 ar
    14    6   39 1
    15    7    8 ar
    16    7   40 1
    17    8    9 1
    18    9   10 1
    19    9   18 1
    20   10   11 1
    21   11   16 ar
    22   11   12 ar
    23   12   13 ar
    24   12   41 1
    25   13   14 ar
    26   13   42 1
    27   14   15 ar
    28   14   17 1
    29   15   16 ar
    30   15   43 1
    31   16   44 1
    32   17   45 1
    33   18   19 1
    34   18   46 1
    35   18   47 1
    36   19   24 ar
    37   19   20 ar
    38   20   21 ar
    39   20   48 1
    40   21   22 ar
    41   21   49 1
    42   22   23 ar
    43   22   25 1
    44   23   24 ar
    45   23   50 1
    46   24   51 1
    47   25   26 1
    48   26   27 1
    49   26   52 1
    50   26   53 1
    51   27   28 1
    52   27   54 1
    53   27   55 1
    54   28   33 1
    55   28   29 1
    56   28   67 1
    57   29   30 1
    58   29   56 1
    59   29   57 1
    60   30   31 1
    61   30   58 1
    62   30   59 1
    63   31   32 1
    64   31   60 1
    65   31   61 1
    66   32   33 1
    67   32   62 1
    68   32   63 1
    69   33   64 1
    70   33   65 1
    71   34   66 1
@<TRIPOS>MOLECULE
CHEMBL199140
   42    45     0     0     0
SMALL
USER_CHARGES

@<TRIPOS>ATOM
      1 C1          7.4178   -1.7175   -2.4459 C.ar      1 <0>        -0.1229
      2 C2          6.4635   -2.6906   -2.2153 C.ar      1 <0>        -0.1184
      3 C3          5.3428   -2.3949   -1.4620 C.ar      1 <0>        -0.1106
      4 C4          5.1767   -1.1261   -0.9389 C.ar      1 <0>        -0.0739
      5 C5          6.1315   -0.1533   -1.1688 C.ar      1 <0>        -0.1136
      6 C6          7.2515   -0.4486   -1.9233 C.ar      1 <0>        -0.1180
      7 C7          3.9544   -0.8034   -0.1185 C.3       1 <0>        -0.0358
      8 C8          4.2252   -1.1162    1.3306 C.2       1 <0>        -0.0601
      9 C9          3.9030   -2.2685    1.9323 C.2       1 <0>        -0.0867
     10 C10         4.3419   -2.1815    3.3754 C.3       1 <0>        -0.0507
     11 C11         4.9649   -0.8149    3.5264 C.ar      1 <0>        -0.0809
     12 C12         4.8843   -0.1998    2.2728 C.ar      1 <0>        -0.0711
     13 C13         5.3962    1.0928    2.1110 C.ar      1 <0>        -0.0782
     14 C14         5.9750    1.7423    3.1791 C.ar      1 <0>        -0.1444
     15 C15         6.0542    1.1205    4.4184 C.ar      1 <0>         0.1108
     16 C16         5.5393   -0.1598    4.5887 C.ar      1 <0>        -0.1263
     17 O1          6.6269    1.7672    5.4671 O.3       1 <0>        -0.4971
     18 C17         3.2366   -3.4194    1.2981 C.ar      1 <0>        -0.0373
     19 C18         1.9196   -3.3042    0.8441 C.ar      1 <0>        -0.0888
     20 C19         1.3007   -4.3833    0.2511 C.ar      1 <0>        -0.1427
     21 C20         1.9833   -5.5841    0.1048 C.ar      1 <0>         0.1082
     22 C21         3.2918   -5.7035    0.5548 C.ar      1 <0>        -0.1427
     23 C22         3.9213   -4.6282    1.1434 C.ar      1 <0>        -0.0860
     24 O2          1.3688   -6.6453   -0.4801 O.3       1 <0>        -0.4997
     25 H1          8.2956   -1.9499   -3.0307 H         1 <0>         0.1205
     26 H2          6.5933   -3.6819   -2.6239 H         1 <0>         0.1204
     27 H3          4.5968   -3.1549   -1.2824 H         1 <0>         0.1188
     28 H4          6.0015    0.8381   -0.7604 H         1 <0>         0.1188
     29 H5          7.9972    0.3115   -2.1032 H         1 <0>         0.1213
     30 H6          3.7156    0.2550   -0.2233 H         1 <0>         0.0825
     31 H7          3.1135   -1.4020   -0.4685 H         1 <0>         0.0853
     32 H8          3.4817   -2.2790    4.0377 H         1 <0>         0.1044
     33 H9          5.0764   -2.9568    3.5935 H         1 <0>         0.1035
     34 H10         5.3378    1.5806    1.1492 H         1 <0>         0.1257
     35 H11         6.3694    2.7396    3.0521 H         1 <0>         0.1318
     36 H12         5.6020   -0.6437    5.5522 H         1 <0>         0.1300
     37 H13         6.0070    2.2931    5.9909 H         1 <0>         0.3919
     38 H14         1.3878   -2.3712    0.9581 H         1 <0>         0.1290
     39 H15         0.2832   -4.2953   -0.1000 H         1 <0>         0.1313
     40 H16         3.8184   -6.6393    0.4391 H         1 <0>         0.1310
     41 H17         4.9403   -4.7206    1.4889 H         1 <0>         0.1281
     42 H18         1.4862   -6.6884   -1.4389 H         1 <0>         0.3923
@<TRIPOS>BOND
     1    1    6 ar
     2    1    2 ar
     3    1   25 1
     4    2    3 ar
     5    2   26 1
     6    3    4 ar
     7    3   27 1
     8    4    5 ar
     9    4    7 1
    10    5    6 ar
    11    5   28 1
    12    6   29 1
    13    7    8 1
    14    7   30 1
    15    7   31 1
    16    8   12 1
    17    8    9 2
    18    9   10 1
    19    9   18 1
    20   10   11 1
    21   10   32 1
    22   10   33 1
    23   11   16 ar
    24   11   12 ar
    25   12   13 ar
    26   13   14 ar
    27   13   34 1
    28   14   15 ar
    29   14   35 1
    30   15   16 ar
    31   15   17 1
    32   16   36 1
    33   17   37 1
    34   18   23 ar
    35   18   19 ar
    36   19   20 ar
    37   19   38 1
    38   20   21 ar
    39   20   39 1
    40   21   22 ar
    41   21   24 1
    42   22   23 ar
    43   22   40 1
    44   23   41 1
    45   24   42 1
@<TRIPOS>MOLECULE
CHEMBL181368
   71    75     0     0     0
SMALL
USER_CHARGES

@<TRIPOS>ATOM
      1 C1          0.4309    2.0652   -0.0014 C.3       1 <0>        -0.1489
      2 C2          0.5492    0.5426   -0.0947 C.3       1 <0>        -0.0422
      3 H1          1.1497    0.2782   -0.9651 H         1 <0>         0.0991
      4 C3         -0.8260   -0.0600   -0.2321 C.ar      1 <0>        -0.1786
      5 C4         -1.4650   -0.6515    0.8437 C.ar      1 <0>         0.1555
      6 C5         -2.7358   -1.1922    0.6803 C.ar      1 <0>        -0.1417
      7 C6         -3.3609   -1.1446   -0.5496 C.ar      1 <0>        -0.0801
      8 C7         -2.7206   -0.5555   -1.6283 C.ar      1 <0>         0.0463
      9 C8         -1.4531   -0.0137   -1.4674 C.ar      1 <0>         0.1107
     10 F1         -0.8284    0.5612   -2.5183 F         1 <0>        -0.1232
     11 O1         -3.3329   -0.5088   -2.8422 O.3       1 <0>        -0.4837
     12 O2         -0.8812   -0.7283    2.0690 O.3       1 <0>        -0.2935
     13 C9          0.2310    0.1277    2.3336 C.3       1 <0>         0.1416
     14 H2         -0.1115    1.1592    2.4172 H         1 <0>         0.0925
     15 C10         1.2224    0.0055    1.1707 C.3       1 <0>        -0.0690
     16 H3          2.1161    0.5905    1.3880 H         1 <0>         0.1053
     17 C11         1.5969   -1.4406    0.9722 C.ar      1 <0>        -0.0893
     18 C12         0.7822   -2.2676    0.2211 C.ar      1 <0>        -0.1010
     19 C13         1.1230   -3.5938    0.0380 C.ar      1 <0>        -0.1406
     20 C14         2.2840   -4.0955    0.6081 C.ar      1 <0>         0.1098
     21 C15         3.0999   -3.2636    1.3610 C.ar      1 <0>        -0.1475
     22 C16         2.7574   -1.9369    1.5368 C.ar      1 <0>        -0.0900
     23 O3          2.6211   -5.3999    0.4299 O.3       1 <0>        -0.5007
     24 C17         0.8993   -0.2907    3.6178 C.ar      1 <0>        -0.1064
     25 C18         1.0568   -1.6333    3.9082 C.ar      1 <0>        -0.0365
     26 C19         1.6686   -2.0195    5.0850 C.ar      1 <0>        -0.1420
     27 C20         2.1256   -1.0589    5.9756 C.ar      1 <0>         0.1212
     28 C21         1.9668    0.2876    5.6817 C.ar      1 <0>        -0.2043
     29 C22         1.3589    0.6686    4.5011 C.ar      1 <0>        -0.0617
     30 O4          2.7275   -1.4363    7.1341 O.3       1 <0>        -0.3274
     31 C23         3.1731   -0.3933    8.0034 C.3       1 <0>         0.0239
     32 C24         3.8199   -1.0071    9.2467 C.3       1 <0>        -0.0082
     33 N1          5.0297   -1.7433    8.8564 N.4       1 <0>        -0.3673
     34 C25         5.4956   -2.5346   10.0118 C.3       1 <0>        -0.0035
     35 C26         6.3033   -3.6983    9.4940 C.3       1 <0>        -0.1502
     36 C27         7.8115   -3.3867    9.5053 C.3       1 <0>        -0.1310
     37 C28         8.1012   -1.9438    9.0449 C.3       1 <0>        -0.1388
     38 C29         7.2497   -1.5337    7.8707 C.3       1 <0>        -0.1342
     39 C30         5.9785   -0.8310    8.3915 C.3       1 <0>        -0.0396
     40 H4          1.4249    2.5016    0.0964 H         1 <0>         0.0682
     41 H5         -0.0471    2.4484   -0.9029 H         1 <0>         0.0672
     42 H6         -0.1695    2.3303    0.8689 H         1 <0>         0.0583
     43 H7         -3.2364   -1.6513    1.5200 H         1 <0>         0.1449
     44 H8         -4.3477   -1.5663   -0.6712 H         1 <0>         0.1499
     45 H9         -3.8699    0.2833   -2.9817 H         1 <0>         0.3932
     46 H10        -0.1215   -1.8766   -0.2225 H         1 <0>         0.1379
     47 H11         0.4860   -4.2395   -0.5482 H         1 <0>         0.1292
     48 H12         4.0042   -3.6518    1.8059 H         1 <0>         0.1260
     49 H13         3.3945   -1.2877    2.1191 H         1 <0>         0.1209
     50 H14         3.1697   -5.5613   -0.3499 H         1 <0>         0.3939
     51 H15         0.7008   -2.3807    3.2146 H         1 <0>         0.1386
     52 H16         1.7908   -3.0684    5.3117 H         1 <0>         0.1339
     53 H17         2.3217    1.0373    6.3733 H         1 <0>         0.1299
     54 H18         1.2389    1.7167    4.2698 H         1 <0>         0.1331
     55 H19         3.9028    0.2267    7.4827 H         1 <0>         0.0872
     56 H20         2.3224    0.2196    8.3014 H         1 <0>         0.1105
     57 H21         4.0865   -0.2148    9.9462 H         1 <0>         0.1503
     58 H22         3.1164   -1.6903    9.7225 H         1 <0>         0.1448
     59 H23         6.1178   -1.9131   10.6558 H         1 <0>         0.1338
     60 H24         4.6379   -2.9039   10.5741 H         1 <0>         0.1351
     61 H25         6.1148   -4.5699   10.1208 H         1 <0>         0.1090
     62 H26         5.9931   -3.9212    8.4732 H         1 <0>         0.0823
     63 H27         8.1943   -3.5204   10.5171 H         1 <0>         0.0806
     64 H28         8.3227   -4.0816    8.8390 H         1 <0>         0.0818
     65 H29         7.9097   -1.2633    9.8746 H         1 <0>         0.0693
     66 H30         9.1514   -1.8673    8.7632 H         1 <0>         0.0866
     67 H31         7.8106   -0.8485    7.2351 H         1 <0>         0.1088
     68 H32         6.9690   -2.4174    7.2976 H         1 <0>         0.0875
     69 H33         5.5408   -0.2455    7.5830 H         1 <0>         0.1277
     70 H34         6.2529   -0.1595    9.2050 H         1 <0>         0.1288
     71 H35         4.7947   -2.3762    8.1065 H         1 <0>         0.4259
@<TRIPOS>BOND
     1    1    2 1
     2    1   40 1
     3    1   41 1
     4    1   42 1
     5    2    3 1
     6    2   15 1
     7    2    4 1
     8    4    9 ar
     9    4    5 ar
    10    5    6 ar
    11    5   12 1
    12    6    7 ar
    13    6   43 1
    14    7    8 ar
    15    7   44 1
    16    8    9 ar
    17    8   11 1
    18    9   10 1
    19   11   45 1
    20   12   13 1
    21   13   14 1
    22   13   15 1
    23   13   24 1
    24   15   16 1
    25   15   17 1
    26   17   22 ar
    27   17   18 ar
    28   18   19 ar
    29   18   46 1
    30   19   20 ar
    31   19   47 1
    32   20   21 ar
    33   20   23 1
    34   21   22 ar
    35   21   48 1
    36   22   49 1
    37   23   50 1
    38   24   29 ar
    39   24   25 ar
    40   25   26 ar
    41   25   51 1
    42   26   27 ar
    43   26   52 1
    44   27   28 ar
    45   27   30 1
    46   28   29 ar
    47   28   53 1
    48   29   54 1
    49   30   31 1
    50   31   32 1
    51   31   55 1
    52   31   56 1
    53   32   33 1
    54   32   57 1
    55   32   58 1
    56   33   39 1
    57   33   34 1
    58   33   71 1
    59   34   35 1
    60   34   59 1
    61   34   60 1
    62   35   36 1
    63   35   61 1
    64   35   62 1
    65   36   37 1
    66   36   63 1
    67   36   64 1
    68   37   38 1
    69   37   65 1
    70   37   66 1
    71   38   39 1
    72   38   67 1
    73   38   68 1
    74   39   69 1
    75   39   70 1
@<TRIPOS>MOLECULE
CHEMBL434502
   79    83     0     0     0
SMALL
USER_CHARGES

@<TRIPOS>ATOM
      1 C1         -0.0184    1.5028    0.0103 C.3       1 <0>        -0.0686
      2 C2          0.0021   -0.0041    0.0020 C.2       1 <0>         0.0640
      3 N1         -1.0131   -0.8316    0.0019 N.2       1 <0>        -0.5060
      4 C3         -0.8336   -2.1374   -0.0059 C.2       1 <0>         0.0752
      5 C4          0.4492   -2.5821   -0.0139 C.2       1 <0>        -0.2421
      6 S1          1.3350   -1.0316   -0.0168 S.3       1 <0>         0.1130
      7 C5         -1.9989   -3.0929   -0.0056 C.3       1 <0>         0.1313
      8 N2         -2.4479   -3.3171    1.3750 N.3       1 <0>        -0.5307
      9 C6         -1.4169   -4.0116    2.1578 C.3       1 <0>         0.0355
     10 C7         -1.8458   -4.0648    3.6279 C.3       1 <0>         0.1170
     11 N3         -3.1888   -4.6600    3.7016 N.pl3     1 <0>        -0.5248
     12 C8         -4.2444   -4.1041    2.8414 C.3       1 <0>         0.1163
     13 C9         -3.7211   -4.0493    1.4022 C.3       1 <0>         0.0412
     14 C10        -3.4515   -5.7118    4.5555 C.ar      1 <0>         0.6737
     15 N4         -2.4856   -6.1969    5.3297 N.ar      1 <0>        -0.6205
     16 C11        -2.7387   -7.2100    6.1521 C.ar      1 <0>         0.6935
     17 N5         -3.9577   -7.7382    6.2006 N.ar      1 <0>        -0.6389
     18 C12        -4.9236   -7.2530    5.4270 C.ar      1 <0>         0.6836
     19 N6         -4.6717   -6.2364    4.6080 N.ar      1 <0>        -0.6150
     20 N7         -6.1890   -7.8017    5.4770 N.pl3     1 <0>        -0.5552
     21 C13        -6.4676   -8.9189    6.3827 C.3       1 <0>         0.0583
     22 C14        -7.2535   -7.2669    4.6243 C.3       1 <0>         0.1167
     23 C15        -7.2607   -8.0135    3.2888 C.3       1 <0>        -0.1306
     24 C16        -8.3724   -7.4550    2.3983 C.3       1 <0>        -0.0761
     25 C17        -8.3795   -8.1903    1.0829 C.ar      1 <0>        -0.0853
     26 C18        -7.6130   -7.7285    0.0291 C.ar      1 <0>        -0.1032
     27 C19        -7.6191   -8.4025   -1.1776 C.ar      1 <0>        -0.1080
     28 C20        -8.3924   -9.5394   -1.3307 C.ar      1 <0>        -0.0354
     29 C21        -9.1593  -10.0010   -0.2757 C.ar      1 <0>        -0.1069
     30 C22        -9.1480   -9.3294    0.9322 C.ar      1 <0>        -0.1036
     31 Cl1        -8.4010  -10.3861   -2.8462 Cl        1 <0>        -0.0623
     32 N8         -1.7358   -7.7138    6.9554 N.pl3     1 <0>        -0.6645
     33 C23        -2.0148   -8.8303    7.8618 C.3       1 <0>         0.0946
     34 C24        -0.7430   -9.1923    8.6315 C.3       1 <0>        -0.0847
     35 C25        -1.0299  -10.3409    9.5640 C.ar      1 <0>        -0.1113
     36 C26        -1.4680  -10.0917   10.8515 C.ar      1 <0>        -0.0934
     37 C27        -1.7312  -11.1429   11.7084 C.ar      1 <0>        -0.1428
     38 C28        -1.5562  -12.4494   11.2758 C.ar      1 <0>         0.1187
     39 C29        -1.1170  -12.6968    9.9833 C.ar      1 <0>        -0.1428
     40 C30        -0.8601  -11.6422    9.1287 C.ar      1 <0>        -0.0936
     41 O1         -1.8141  -13.4852   12.1170 O.3       1 <0>        -0.4970
     42 H1          1.0042    1.8801    0.0026 H         1 <0>         0.0864
     43 H2         -0.5455    1.8639   -0.8728 H         1 <0>         0.0936
     44 H3         -0.5286    1.8543    0.9071 H         1 <0>         0.0930
     45 H4          0.8286   -3.5932   -0.0206 H         1 <0>         0.1918
     46 H5         -2.8162   -2.6694   -0.5892 H         1 <0>         0.0978
     47 H6         -1.6912   -4.0413   -0.4460 H         1 <0>         0.0561
     48 H7         -1.2935   -5.0258    1.7779 H         1 <0>         0.0446
     49 H8         -0.4725   -3.4739    2.0736 H         1 <0>         0.1008
     50 H9         -1.1425   -4.6769    4.1926 H         1 <0>         0.1109
     51 H10        -1.8695   -3.0556    4.0392 H         1 <0>         0.0957
     52 H11        -5.1270   -4.7422    2.8861 H         1 <0>         0.1116
     53 H12        -4.4986   -3.0987    3.1771 H         1 <0>         0.0975
     54 H13        -4.4478   -3.5390    0.7701 H         1 <0>         0.1038
     55 H14        -3.5656   -5.0630    1.0329 H         1 <0>         0.0448
     56 H15        -6.7956   -8.5316    7.3473 H         1 <0>         0.0891
     57 H16        -7.2518   -9.5450    5.9569 H         1 <0>         0.1125
     58 H17        -5.5628   -9.5115    6.5178 H         1 <0>         0.0720
     59 H18        -8.2158   -7.3982    5.1191 H         1 <0>         0.1039
     60 H19        -7.0781   -6.2059    4.4465 H         1 <0>         0.1074
     61 H20        -6.2983   -7.8822    2.7940 H         1 <0>         0.0725
     62 H21        -7.4361   -9.0745    3.4666 H         1 <0>         0.0715
     63 H22        -9.3347   -7.5862    2.8931 H         1 <0>         0.0812
     64 H23        -8.1970   -6.3940    2.2205 H         1 <0>         0.0819
     65 H24        -7.0096   -6.8408    0.1487 H         1 <0>         0.1298
     66 H25        -7.0205   -8.0415   -2.0009 H         1 <0>         0.1343
     67 H26        -9.7635  -10.8883   -0.3948 H         1 <0>         0.1356
     68 H27        -9.7429   -9.6924    1.7573 H         1 <0>         0.1315
     69 H28        -0.8463   -7.3285    6.9197 H         1 <0>         0.4438
     70 H29        -2.7953   -8.5409    8.5654 H         1 <0>         0.0872
     71 H30        -2.3478   -9.6927    7.2843 H         1 <0>         0.0863
     72 H31         0.0376   -9.4818    7.9279 H         1 <0>         0.0930
     73 H32        -0.4100   -8.3300    9.2091 H         1 <0>         0.0934
     74 H33        -1.6041   -9.0745   11.1878 H         1 <0>         0.1288
     75 H34        -2.0727  -10.9477   12.7142 H         1 <0>         0.1340
     76 H35        -0.9799  -13.7130    9.6443 H         1 <0>         0.1339
     77 H36        -0.5224  -11.8343    8.1210 H         1 <0>         0.1285
     78 H37        -2.7262  -13.8042   12.0799 H         1 <0>         0.3964
     79 H38        -4.1423   -8.4780    6.8003 H         1 <0>         0.4338
@<TRIPOS>BOND
     1    1    2 1
     2    1   42 1
     3    1   43 1
     4    1   44 1
     5    2    6 1
     6    2    3 2
     7    3    4 1
     8    4    5 2
     9    4    7 1
    10    5    6 1
    11    5   45 1
    12    7    8 1
    13    7   46 1
    14    7   47 1
    15    8   13 1
    16    8    9 1
    17    9   10 1
    18    9   48 1
    19    9   49 1
    20   10   11 1
    21   10   50 1
    22   10   51 1
    23   11   12 1
    24   11   14 1
    25   12   13 1
    26   12   52 1
    27   12   53 1
    28   13   54 1
    29   13   55 1
    30   14   19 ar
    31   14   15 ar
    32   15   16 ar
    33   16   17 ar
    34   16   32 1
    35   17   18 ar
    36   17   79 1
    37   18   19 ar
    38   18   20 1
    39   20   21 1
    40   20   22 1
    41   21   56 1
    42   21   57 1
    43   21   58 1
    44   22   23 1
    45   22   59 1
    46   22   60 1
    47   23   24 1
    48   23   61 1
    49   23   62 1
    50   24   25 1
    51   24   63 1
    52   24   64 1
    53   25   30 ar
    54   25   26 ar
    55   26   27 ar
    56   26   65 1
    57   27   28 ar
    58   27   66 1
    59   28   29 ar
    60   28   31 1
    61   29   30 ar
    62   29   67 1
    63   30   68 1
    64   32   33 1
    65   32   69 1
    66   33   34 1
    67   33   70 1
    68   33   71 1
    69   34   35 1
    70   34   72 1
    71   34   73 1
    72   35   40 ar
    73   35   36 ar
    74   36   37 ar
    75   36   74 1
    76   37   38 ar
    77   37   75 1
    78   38   39 ar
    79   38   41 1
    80   39   40 ar
    81   39   76 1
    82   40   77 1
    83   41   78 1
@<TRIPOS>MOLECULE
CHEMBL434502__1
   80    84     0     0     0
SMALL
USER_CHARGES

@<TRIPOS>ATOM
      1 C1         -0.0184    1.5028    0.0103 C.3       1 <0>        -0.0793
      2 C2          0.0021   -0.0041    0.0020 C.2       1 <0>         0.0775
      3 N1         -1.0131   -0.8316    0.0019 N.2       1 <0>        -0.5243
      4 C3         -0.8336   -2.1374   -0.0059 C.2       1 <0>        -0.0021
      5 C4          0.4492   -2.5821   -0.0139 C.2       1 <0>        -0.2249
      6 S1          1.3350   -1.0316   -0.0168 S.3       1 <0>         0.2033
      7 C5         -1.9989   -3.0929   -0.0056 C.3       1 <0>         0.0811
      8 N2         -2.4479   -3.3171    1.3750 N.4       1 <0>        -0.3858
      9 C6         -1.3827   -3.9872    2.1316 C.3       1 <0>        -0.0270
     10 C7         -1.8046   -4.1185    3.5988 C.3       1 <0>         0.0974
     11 N3         -3.1071   -4.8004    3.6502 N.pl3     1 <0>        -0.5654
     12 C8         -4.1903   -4.2914    2.7948 C.3       1 <0>         0.0948
     13 C9         -3.6558   -4.1520    1.3656 C.3       1 <0>        -0.0215
     14 C10        -3.3070   -5.8870    4.4772 C.ar      1 <0>         0.6921
     15 N4         -2.3163   -6.3283    5.2462 N.ar      1 <0>        -0.6256
     16 C11        -2.5089   -7.3749    6.0427 C.ar      1 <0>         0.6999
     17 N5         -3.6921   -7.9804    6.0703 N.ar      1 <0>        -0.6346
     18 C12        -4.6828   -7.5390    5.3018 C.ar      1 <0>         0.6882
     19 N6         -4.4917   -6.4891    4.5088 N.ar      1 <0>        -0.6194
     20 N7         -5.9109   -8.1679    5.3301 N.pl3     1 <0>        -0.5407
     21 C13        -6.1228   -9.3220    6.2072 C.3       1 <0>         0.0505
     22 C14        -7.0027   -7.6813    4.4831 C.3       1 <0>         0.1115
     23 C15        -6.9553   -8.3945    3.1303 C.3       1 <0>        -0.1304
     24 C16        -8.0955   -7.8864    2.2456 C.3       1 <0>        -0.0749
     25 C17        -8.0488   -8.5888    0.9132 C.ar      1 <0>        -0.0894
     26 C18        -7.3077   -8.0542   -0.1241 C.ar      1 <0>        -0.1068
     27 C19        -7.2644   -8.6979   -1.3464 C.ar      1 <0>        -0.1098
     28 C20        -7.9631   -9.8776   -1.5317 C.ar      1 <0>        -0.0338
     29 C21        -8.7047  -10.4122   -0.4932 C.ar      1 <0>        -0.1034
     30 C22        -8.7426   -9.7704    0.7303 C.ar      1 <0>        -0.1012
     31 Cl1        -7.9098  -10.6865   -3.0668 Cl        1 <0>        -0.0557
     32 N8         -1.4804   -7.8332    6.8407 N.pl3     1 <0>        -0.6505
     33 C23        -1.6926   -8.9867    7.7185 C.3       1 <0>         0.0878
     34 C24        -0.4045   -9.2857    8.4881 C.3       1 <0>        -0.0828
     35 C25        -0.6228  -10.4723    9.3911 C.ar      1 <0>        -0.1179
     36 C26        -1.0826  -10.2824   10.6812 C.ar      1 <0>        -0.0928
     37 C27        -1.2831  -11.3685   11.5111 C.ar      1 <0>        -0.1426
     38 C28        -1.0231  -12.6505   11.0490 C.ar      1 <0>         0.1241
     39 C29        -0.5622  -12.8383    9.7540 C.ar      1 <0>        -0.1428
     40 C30        -0.3682  -11.7494    8.9264 C.ar      1 <0>        -0.0932
     41 O1         -1.2191  -13.7204   11.8636 O.3       1 <0>        -0.4957
     42 H1          1.0042    1.8801    0.0026 H         1 <0>         0.0960
     43 H2         -0.5455    1.8639   -0.8728 H         1 <0>         0.1031
     44 H3         -0.5286    1.8543    0.9071 H         1 <0>         0.1008
     45 H4          0.8286   -3.5932   -0.0206 H         1 <0>         0.2053
     46 H5         -2.8162   -2.6694   -0.5892 H         1 <0>         0.1494
     47 H6         -1.6912   -4.0413   -0.4460 H         1 <0>         0.1454
     48 H7         -1.2084   -4.9786    1.7134 H         1 <0>         0.1395
     49 H8         -0.4668   -3.3996    2.0680 H         1 <0>         0.1492
     50 H9         -1.0630   -4.7039    4.1422 H         1 <0>         0.1482
     51 H10        -1.8920   -3.1277    4.0448 H         1 <0>         0.1103
     52 H11        -5.0259   -4.9912    2.8066 H         1 <0>         0.1489
     53 H12        -4.5186   -3.3182    3.1596 H         1 <0>         0.1122
     54 H13        -4.4149   -3.6858    0.7375 H         1 <0>         0.1567
     55 H14        -3.4127   -5.1384    0.9706 H         1 <0>         0.1390
     56 H15        -6.4800   -8.9795    7.1784 H         1 <0>         0.0967
     57 H16        -6.8633   -9.9861    5.7614 H         1 <0>         0.1193
     58 H17        -5.1829   -9.8591    6.3345 H         1 <0>         0.0761
     59 H18        -7.9574   -7.8852    4.9680 H         1 <0>         0.1102
     60 H19        -6.8942   -6.6074    4.3316 H         1 <0>         0.1075
     61 H20        -6.0007   -8.1906    2.6453 H         1 <0>         0.0705
     62 H21        -7.0638   -9.4684    3.2817 H         1 <0>         0.0754
     63 H22        -9.0502   -8.0903    2.7306 H         1 <0>         0.0837
     64 H23        -7.9870   -6.8124    2.0942 H         1 <0>         0.0793
     65 H24        -6.7626   -7.1331    0.0205 H         1 <0>         0.1245
     66 H25        -6.6857   -8.2800   -2.1568 H         1 <0>         0.1336
     67 H26        -9.2506  -11.3328   -0.6374 H         1 <0>         0.1384
     68 H27        -9.3176  -10.1901    1.5425 H         1 <0>         0.1331
     69 H28        -0.6170   -7.3916    6.8203 H         1 <0>         0.4463
     70 H29        -2.4937   -8.7644    8.4234 H         1 <0>         0.0926
     71 H30        -1.9670   -9.8543    7.1185 H         1 <0>         0.0918
     72 H31         0.3966   -9.5081    7.7832 H         1 <0>         0.0935
     73 H32        -0.1300   -8.4181    9.0882 H         1 <0>         0.0941
     74 H33        -1.2849   -9.2842   11.0405 H         1 <0>         0.1284
     75 H34        -1.6416  -11.2196   12.5189 H         1 <0>         0.1356
     76 H35        -0.3590  -13.8353    9.3920 H         1 <0>         0.1354
     77 H36        -0.0136  -11.8954    7.9167 H         1 <0>         0.1279
     78 H37        -2.1088  -14.0957   11.8127 H         1 <0>         0.3984
     79 H38        -3.8325   -8.7446    6.6511 H         1 <0>         0.4403
     80 H39        -2.6572   -2.4298    1.8076 H         1 <0>         0.4298
@<TRIPOS>BOND
     1    1    2 1
     2    1   42 1
     3    1   43 1
     4    1   44 1
     5    2    6 1
     6    2    3 2
     7    3    4 1
     8    4    5 2
     9    4    7 1
    10    5    6 1
    11    5   45 1
    12    7    8 1
    13    7   46 1
    14    7   47 1
    15    8   13 1
    16    8    9 1
    17    8   80 1
    18    9   10 1
    19    9   48 1
    20    9   49 1
    21   10   11 1
    22   10   50 1
    23   10   51 1
    24   11   12 1
    25   11   14 1
    26   12   13 1
    27   12   52 1
    28   12   53 1
    29   13   54 1
    30   13   55 1
    31   14   19 ar
    32   14   15 ar
    33   15   16 ar
    34   16   17 ar
    35   16   32 1
    36   17   18 ar
    37   17   79 1
    38   18   19 ar
    39   18   20 1
    40   20   21 1
    41   20   22 1
    42   21   56 1
    43   21   57 1
    44   21   58 1
    45   22   23 1
    46   22   59 1
    47   22   60 1
    48   23   24 1
    49   23   61 1
    50   23   62 1
    51   24   25 1
    52   24   63 1
    53   24   64 1
    54   25   30 ar
    55   25   26 ar
    56   26   27 ar
    57   26   65 1
    58   27   28 ar
    59   27   66 1
    60   28   29 ar
    61   28   31 1
    62   29   30 ar
    63   29   67 1
    64   30   68 1
    65   32   33 1
    66   32   69 1
    67   33   34 1
    68   33   70 1
    69   33   71 1
    70   34   35 1
    71   34   72 1
    72   34   73 1
    73   35   40 ar
    74   35   36 ar
    75   36   37 ar
    76   36   74 1
    77   37   38 ar
    78   37   75 1
    79   38   39 ar
    80   38   41 1
    81   39   40 ar
    82   39   76 1
    83   40   77 1
    84   41   78 1
@<TRIPOS>MOLECULE
CHEMBL434502__2
   78    82     0     0     0
SMALL
USER_CHARGES

@<TRIPOS>ATOM
      1 C1         -0.0184    1.5028    0.0103 C.3       1 <0>        -0.0656
      2 C2          0.0021   -0.0041    0.0020 C.2       1 <0>         0.0593
      3 N1         -1.0131   -0.8316    0.0019 N.2       1 <0>        -0.5028
      4 C3         -0.8336   -2.1374   -0.0059 C.2       1 <0>         0.0802
      5 C4          0.4492   -2.5821   -0.0139 C.2       1 <0>        -0.2363
      6 S1          1.3350   -1.0316   -0.0168 S.3       1 <0>         0.0993
      7 C5         -1.9989   -3.0929   -0.0056 C.3       1 <0>         0.1290
      8 N2         -2.4479   -3.3171    1.3750 N.3       1 <0>        -0.5297
      9 C6         -1.4169   -4.0116    2.1578 C.3       1 <0>         0.0386
     10 C7         -1.8458   -4.0648    3.6279 C.3       1 <0>         0.1358
     11 N3         -3.1888   -4.6600    3.7016 N.pl3     1 <0>        -0.5752
     12 C8         -4.2444   -4.1041    2.8414 C.3       1 <0>         0.1347
     13 C9         -3.7211   -4.0493    1.4022 C.3       1 <0>         0.0438
     14 C10        -3.4515   -5.7118    4.5555 C.ar      1 <0>         0.6573
     15 N4         -2.4856   -6.1969    5.3297 N.ar      1 <0>        -0.6823
     16 C11        -2.7387   -7.2100    6.1521 C.ar      1 <0>         0.6538
     17 N5         -3.9577   -7.7382    6.2006 N.ar      1 <0>        -0.6723
     18 C12        -4.9236   -7.2530    5.4270 C.ar      1 <0>         0.6530
     19 N6         -4.6717   -6.2364    4.6080 N.ar      1 <0>        -0.6776
     20 N7         -6.1890   -7.8017    5.4770 N.pl3     1 <0>        -0.5787
     21 C13        -7.2535   -7.2669    4.6243 C.3       1 <0>         0.1025
     22 C14        -6.4676   -8.9189    6.3827 C.3       1 <0>         0.1334
     23 C15        -6.9281   -8.3752    7.7367 C.3       1 <0>        -0.1263
     24 C16        -7.2191   -9.5420    8.6826 C.3       1 <0>        -0.0774
     25 C17        -7.6726   -9.0064   10.0162 C.ar      1 <0>        -0.0743
     26 C18        -6.7438   -8.7330   11.0030 C.ar      1 <0>        -0.1026
     27 C19        -7.1591   -8.2418   12.2263 C.ar      1 <0>        -0.1080
     28 C20        -8.5047   -8.0237   12.4632 C.ar      1 <0>        -0.0396
     29 C21        -9.4337   -8.2974   11.4752 C.ar      1 <0>        -0.1083
     30 C22        -9.0166   -8.7833   10.2503 C.ar      1 <0>        -0.1053
     31 Cl1        -9.0271   -7.4072   13.9997 Cl        1 <0>        -0.0714
     32 N8         -1.7358   -7.7138    6.9554 N.pl3     1 <0>        -0.6913
     33 C23        -2.0148   -8.8303    7.8618 C.3       1 <0>         0.1472
     34 C24        -0.7430   -9.1923    8.6315 C.3       1 <0>        -0.0935
     35 C25        -1.0299  -10.3409    9.5640 C.ar      1 <0>        -0.0895
     36 C26        -1.4680  -10.0917   10.8515 C.ar      1 <0>        -0.0954
     37 C27        -1.7312  -11.1429   11.7084 C.ar      1 <0>        -0.1426
     38 C28        -1.5562  -12.4494   11.2758 C.ar      1 <0>         0.1048
     39 C29        -1.1170  -12.6968    9.9833 C.ar      1 <0>        -0.1430
     40 C30        -0.8601  -11.6422    9.1287 C.ar      1 <0>        -0.0954
     41 O1         -1.8141  -13.4852   12.1170 O.3       1 <0>        -0.5003
     42 H1          1.0042    1.8801    0.0026 H         1 <0>         0.0841
     43 H2         -0.5455    1.8639   -0.8728 H         1 <0>         0.0912
     44 H3         -0.5286    1.8543    0.9071 H         1 <0>         0.0918
     45 H4          0.8286   -3.5932   -0.0206 H         1 <0>         0.1922
     46 H5         -2.8162   -2.6694   -0.5892 H         1 <0>         0.0933
     47 H6         -1.6912   -4.0413   -0.4460 H         1 <0>         0.0521
     48 H7         -1.2935   -5.0258    1.7779 H         1 <0>         0.0389
     49 H8         -0.4725   -3.4739    2.0736 H         1 <0>         0.0877
     50 H9         -1.1425   -4.6769    4.1926 H         1 <0>         0.1026
     51 H10        -1.8695   -3.0556    4.0392 H         1 <0>         0.0716
     52 H11        -5.1270   -4.7422    2.8861 H         1 <0>         0.1035
     53 H12        -4.4986   -3.0987    3.1771 H         1 <0>         0.0738
     54 H13        -4.4478   -3.5390    0.7701 H         1 <0>         0.0912
     55 H14        -3.5656   -5.0630    1.0329 H         1 <0>         0.0394
     56 H15        -7.2586   -7.7988    3.6729 H         1 <0>         0.0524
     57 H16        -8.2158   -7.3982    5.1191 H         1 <0>         0.0683
     58 H17        -7.0781   -6.2059    4.4465 H         1 <0>         0.0808
     59 H18        -7.2518   -9.5450    5.9569 H         1 <0>         0.0768
     60 H19        -5.5628   -9.5115    6.5178 H         1 <0>         0.0897
     61 H20        -6.1439   -7.7491    8.1625 H         1 <0>         0.0691
     62 H21        -7.8329   -7.7826    7.6016 H         1 <0>         0.0630
     63 H22        -8.0032  -10.1680    8.2568 H         1 <0>         0.0757
     64 H23        -6.3143  -10.1346    8.8177 H         1 <0>         0.0779
     65 H24        -5.6935   -8.9036   10.8181 H         1 <0>         0.1307
     66 H25        -6.4335   -8.0286   12.9973 H         1 <0>         0.1322
     67 H26       -10.4842   -8.1277   11.6597 H         1 <0>         0.1328
     68 H27        -9.7413   -8.9926    9.4774 H         1 <0>         0.1311
     69 H28        -0.8463   -7.3285    6.9197 H         1 <0>         0.4142
     70 H29        -2.7953   -8.5409    8.5654 H         1 <0>         0.0693
     71 H30        -2.3478   -9.6927    7.2843 H         1 <0>         0.0691
     72 H31         0.0376   -9.4818    7.9279 H         1 <0>         0.0809
     73 H32        -0.4100   -8.3300    9.2091 H         1 <0>         0.0811
     74 H33        -1.6041   -9.0745   11.1878 H         1 <0>         0.1270
     75 H34        -2.0727  -10.9477   12.7142 H         1 <0>         0.1290
     76 H35        -0.9799  -13.7130    9.6443 H         1 <0>         0.1290
     77 H36        -0.5224  -11.8343    8.1210 H         1 <0>         0.1270
     78 H37        -2.7262  -13.8042   12.0799 H         1 <0>         0.3918
@<TRIPOS>BOND
     1    1    2 1
     2    1   42 1
     3    1   43 1
     4    1   44 1
     5    2    6 1
     6    2    3 2
     7    3    4 1
     8    4    5 2
     9    4    7 1
    10    5    6 1
    11    5   45 1
    12    7    8 1
    13    7   46 1
    14    7   47 1
    15    8   13 1
    16    8    9 1
    17    9   10 1
    18    9   48 1
    19    9   49 1
    20   10   11 1
    21   10   50 1
    22   10   51 1
    23   11   12 1
    24   11   14 1
    25   12   13 1
    26   12   52 1
    27   12   53 1
    28   13   54 1
    29   13   55 1
    30   14   19 ar
    31   14   15 ar
    32   15   16 ar
    33   16   17 ar
    34   16   32 1
    35   17   18 ar
    36   18   19 ar
    37   18   20 1
    38   20   21 1
    39   20   22 1
    40   21   56 1
    41   21   57 1
    42   21   58 1
    43   22   23 1
    44   22   59 1
    45   22   60 1
    46   23   24 1
    47   23   61 1
    48   23   62 1
    49   24   25 1
    50   24   63 1
    51   24   64 1
    52   25   30 ar
    53   25   26 ar
    54   26   27 ar
    55   26   65 1
    56   27   28 ar
    57   27   66 1
    58   28   29 ar
    59   28   31 1
    60   29   30 ar
    61   29   67 1
    62   30   68 1
    63   32   33 1
    64   32   69 1
    65   33   34 1
    66   33   70 1
    67   33   71 1
    68   34   35 1
    69   34   72 1
    70   34   73 1
    71   35   40 ar
    72   35   36 ar
    73   36   37 ar
    74   36   74 1
    75   37   38 ar
    76   37   75 1
    77   38   39 ar
    78   38   41 1
    79   39   40 ar
    80   39   76 1
    81   40   77 1
    82   41   78 1
@<TRIPOS>MOLECULE
CHEMBL30996
   69    73     0     0     0
SMALL
USER_CHARGES

@<TRIPOS>ATOM
      1 C1         -0.2645    1.0303   -0.2551 C.3       1 <0>        -0.1477
      2 C2         -0.3907   -0.4927   -0.3290 C.3       1 <0>        -0.0857
      3 C3         -1.8463   -0.8730   -0.4010 C.ar      1 <0>        -0.0778
      4 C4         -2.5593   -1.1120    0.7572 C.ar      1 <0>        -0.1155
      5 C5         -3.8999   -1.4369    0.6842 C.ar      1 <0>        -0.1033
      6 C6         -4.5468   -1.5133   -0.5383 C.ar      1 <0>        -0.0342
      7 C7         -3.7961   -1.3434   -1.7145 C.ar      1 <0>        -0.0673
      8 C8         -2.4674   -0.9926   -1.6334 C.ar      1 <0>        -0.1063
      9 C9         -4.4544   -1.5980   -3.0439 C.3       1 <0>        -0.0041
     10 C10        -5.4662   -2.7392   -2.9091 C.3       1 <0>        -0.0705
     11 C11        -6.4570   -2.3976   -1.8270 C.ar      1 <0>        -0.0588
     12 C12        -6.0023   -1.7562   -0.6688 C.ar      1 <0>        -0.0529
     13 C13        -6.9394   -1.3117    0.2547 C.ar      1 <0>        -0.0448
     14 C14        -8.2736   -1.6557    0.1092 C.ar      1 <0>        -0.1510
     15 C15        -8.6981   -2.3792   -0.9930 C.ar      1 <0>         0.1189
     16 C16        -7.7823   -2.7359   -1.9737 C.ar      1 <0>        -0.1479
     17 O1        -10.0018   -2.7382   -1.1161 O.3       1 <0>        -0.4966
     18 C17        -6.5772   -0.3975    1.3977 C.3       1 <0>        -0.1324
     19 C18        -3.4322   -1.9916   -4.0789 C.ar      1 <0>        -0.0900
     20 C19        -2.6609   -3.1238   -3.8916 C.ar      1 <0>        -0.0636
     21 C20        -1.7228   -3.4864   -4.8387 C.ar      1 <0>        -0.1377
     22 C21        -1.5553   -2.7137   -5.9787 C.ar      1 <0>         0.1107
     23 C22        -2.3307   -1.5784   -6.1645 C.ar      1 <0>        -0.1998
     24 C23        -3.2710   -1.2230   -5.2169 C.ar      1 <0>        -0.0724
     25 O2         -0.6328   -3.0681   -6.9116 O.3       1 <0>        -0.3284
     26 C24        -0.5149   -2.2259   -8.0599 C.3       1 <0>         0.0260
     27 C25         0.5655   -2.7806   -8.9905 C.3       1 <0>        -0.0011
     28 N1          0.1440   -4.0910   -9.5037 N.4       1 <0>        -0.3841
     29 C26         1.2450   -4.6939  -10.2646 C.3       1 <0>        -0.0070
     30 C27         0.8400   -6.0933  -10.7329 C.3       1 <0>        -0.1467
     31 C28        -0.4010   -5.9881  -11.6240 C.3       1 <0>        -0.1390
     32 C29        -1.5195   -5.2907  -10.8445 C.3       1 <0>        -0.1454
     33 C30        -1.0271   -3.9211  -10.3721 C.3       1 <0>        -0.0131
     34 H1          0.7888    1.3055   -0.2030 H         1 <0>         0.0594
     35 H2         -0.7129    1.4756   -1.1432 H         1 <0>         0.0539
     36 H3         -0.7797    1.3948    0.6336 H         1 <0>         0.0580
     37 H4          0.1244   -0.8572   -1.2178 H         1 <0>         0.0689
     38 H5          0.0577   -0.9380    0.5591 H         1 <0>         0.0738
     39 H6         -2.0718   -1.0472    1.7187 H         1 <0>         0.1262
     40 H7         -4.4156   -1.6832    1.6032 H         1 <0>         0.1306
     41 H8         -1.8821   -0.7752   -2.5156 H         1 <0>         0.1193
     42 H9         -4.9747   -0.6987   -3.3684 H         1 <0>         0.0937
     43 H10        -5.9889   -2.8674   -3.8537 H         1 <0>         0.0835
     44 H11        -4.9412   -3.6541   -2.6463 H         1 <0>         0.0831
     45 H12        -8.9844   -1.3531    0.8650 H         1 <0>         0.1321
     46 H13        -8.1116   -3.2789   -2.8476 H         1 <0>         0.1308
     47 H14       -10.5462   -2.0888   -1.5820 H         1 <0>         0.3932
     48 H15        -6.5865    0.6365    1.0530 H         1 <0>         0.0758
     49 H16        -7.3015   -0.5185    2.2033 H         1 <0>         0.0712
     50 H17        -5.5818   -0.6497    1.7633 H         1 <0>         0.0804
     51 H18        -2.7918   -3.7249   -3.0040 H         1 <0>         0.1343
     52 H19        -1.1202   -4.3704   -4.6916 H         1 <0>         0.1327
     53 H20        -2.2021   -0.9753   -7.0511 H         1 <0>         0.1271
     54 H21        -3.8780   -0.3417   -5.3632 H         1 <0>         0.1309
     55 H22        -1.4682   -2.1953   -8.5876 H         1 <0>         0.0858
     56 H23        -0.2413   -1.2188   -7.7453 H         1 <0>         0.1088
     57 H24         0.7142   -2.0945   -9.8243 H         1 <0>         0.1487
     58 H25         1.4992   -2.8897   -8.4388 H         1 <0>         0.1425
     59 H26         1.4703   -4.0723  -11.1311 H         1 <0>         0.1291
     60 H27         2.1283   -4.7651   -9.6300 H         1 <0>         0.1310
     61 H28         1.6580   -6.5385  -11.2991 H         1 <0>         0.1130
     62 H29         0.6146   -6.7158   -9.8670 H         1 <0>         0.0880
     63 H30        -0.1616   -5.4083  -12.5154 H         1 <0>         0.0821
     64 H31        -0.7270   -6.9869  -11.9142 H         1 <0>         0.0947
     65 H32        -2.3880   -5.1622  -11.4905 H         1 <0>         0.1122
     66 H33        -1.7939   -5.8966   -9.9809 H         1 <0>         0.0879
     67 H34        -1.8211   -3.4217   -9.8168 H         1 <0>         0.1273
     68 H35        -0.7533   -3.3159  -11.2363 H         1 <0>         0.1301
     69 H36        -0.0965   -4.6925   -8.7301 H         1 <0>         0.4294
@<TRIPOS>BOND
     1    1    2 1
     2    1   34 1
     3    1   35 1
     4    1   36 1
     5    2    3 1
     6    2   37 1
     7    2   38 1
     8    3    8 ar
     9    3    4 ar
    10    4    5 ar
    11    4   39 1
    12    5    6 ar
    13    5   40 1
    14    6   12 1
    15    6    7 ar
    16    7    8 ar
    17    7    9 1
    18    8   41 1
    19    9   10 1
    20    9   19 1
    21    9   42 1
    22   10   11 1
    23   10   43 1
    24   10   44 1
    25   11   16 ar
    26   11   12 ar
    27   12   13 ar
    28   13   14 ar
    29   13   18 1
    30   14   15 ar
    31   14   45 1
    32   15   16 ar
    33   15   17 1
    34   16   46 1
    35   17   47 1
    36   18   48 1
    37   18   49 1
    38   18   50 1
    39   19   24 ar
    40   19   20 ar
    41   20   21 ar
    42   20   51 1
    43   21   22 ar
    44   21   52 1
    45   22   23 ar
    46   22   25 1
    47   23   24 ar
    48   23   53 1
    49   24   54 1
    50   25   26 1
    51   26   27 1
    52   26   55 1
    53   26   56 1
    54   27   28 1
    55   27   57 1
    56   27   58 1
    57   28   33 1
    58   28   29 1
    59   28   69 1
    60   29   30 1
    61   29   59 1
    62   29   60 1
    63   30   31 1
    64   30   61 1
    65   30   62 1
    66   31   32 1
    67   31   63 1
    68   31   64 1
    69   32   33 1
    70   32   65 1
    71   32   66 1
    72   33   67 1
    73   33   68 1
@<TRIPOS>MOLECULE
CHEMBL30996__1
   69    73     0     0     0
SMALL
USER_CHARGES

@<TRIPOS>ATOM
      1 C1         -0.3916    2.3376   -0.1454 C.3       1 <0>        -0.1459
      2 C2         -0.3893    0.8459    0.1949 C.3       1 <0>        -0.0890
      3 C3         -1.8076    0.3432    0.2584 C.ar      1 <0>        -0.0715
      4 C4         -2.4981    0.3655    1.4554 C.ar      1 <0>        -0.1158
      5 C5         -3.8052   -0.0811    1.5099 C.ar      1 <0>        -0.1036
      6 C6         -4.4490   -0.5329    0.3689 C.ar      1 <0>        -0.0381
      7 C7         -3.7196   -0.6053   -0.8259 C.ar      1 <0>        -0.0711
      8 C8         -2.4181   -0.1538   -0.8779 C.ar      1 <0>        -0.1081
      9 C9         -4.3426   -1.2261   -2.0484 C.3       1 <0>        -0.0060
     10 C10        -5.2532   -2.3789   -1.6296 C.3       1 <0>        -0.0752
     11 C11        -6.2598   -1.8866   -0.6217 C.ar      1 <0>        -0.0497
     12 C12        -5.8713   -0.9461    0.3407 C.ar      1 <0>        -0.0516
     13 C13        -6.8468   -0.3916    1.1587 C.ar      1 <0>        -0.0494
     14 C14        -8.1366   -0.8972    1.1420 C.ar      1 <0>        -0.1524
     15 C15        -8.4863   -1.9029    0.2561 C.ar      1 <0>         0.1190
     16 C16        -7.5433   -2.3845   -0.6411 C.ar      1 <0>        -0.1475
     17 O1         -9.7434   -2.4162    0.2643 O.3       1 <0>        -0.4954
     18 C17        -6.5823    0.8063    2.0354 C.3       1 <0>        -0.1359
     19 C18        -5.1469   -0.1899   -2.7904 C.ar      1 <0>        -0.0883
     20 C19        -5.8300    0.7861   -2.0887 C.ar      1 <0>        -0.0655
     21 C20        -6.5683    1.7369   -2.7665 C.ar      1 <0>        -0.1401
     22 C21        -6.6236    1.7120   -4.1525 C.ar      1 <0>         0.1095
     23 C22        -5.9369    0.7319   -4.8543 C.ar      1 <0>        -0.2015
     24 C23        -5.1958   -0.2135   -4.1720 C.ar      1 <0>        -0.0743
     25 O2         -7.3496    2.6459   -4.8215 O.3       1 <0>        -0.3295
     26 C24        -7.3612    2.5591   -6.2479 C.3       1 <0>         0.0262
     27 C25        -8.2242    3.6853   -6.8203 C.3       1 <0>        -0.0008
     28 N1         -7.6210    4.9824   -6.4865 N.4       1 <0>        -0.3840
     29 C26        -8.5265    6.0619   -6.8981 C.3       1 <0>        -0.0069
     30 C27        -7.9401    7.4120   -6.4798 C.3       1 <0>        -0.1467
     31 C28        -6.5780    7.6015   -7.1536 C.3       1 <0>        -0.1388
     32 C29        -5.6657    6.4306   -6.7767 C.3       1 <0>        -0.1453
     33 C30        -6.3364    5.1169   -7.1839 C.3       1 <0>        -0.0129
     34 H1          0.6349    2.7013   -0.1914 H         1 <0>         0.0603
     35 H2         -0.8745    2.4893   -1.1107 H         1 <0>         0.0528
     36 H3         -0.9369    2.8848    0.6236 H         1 <0>         0.0560
     37 H4          0.1560    0.2987   -0.5741 H         1 <0>         0.0732
     38 H5          0.0935    0.6942    1.1602 H         1 <0>         0.0752
     39 H6         -2.0173    0.7308    2.3510 H         1 <0>         0.1268
     40 H7         -4.2890   -0.1192    2.4764 H         1 <0>         0.1312
     41 H8         -1.8721   -0.1876   -1.8101 H         1 <0>         0.1227
     42 H9         -3.5563   -1.6089   -2.6977 H         1 <0>         0.0978
     43 H10        -5.7748   -2.7624   -2.5038 H         1 <0>         0.0848
     44 H11        -4.6523   -3.1686   -1.1831 H         1 <0>         0.0899
     45 H12        -8.8712   -0.4990    1.8274 H         1 <0>         0.1308
     46 H13        -7.8172   -3.1494   -1.3532 H         1 <0>         0.1300
     47 H14       -10.3593   -1.9576   -0.3233 H         1 <0>         0.3908
     48 H15        -6.9034    1.7116    1.5201 H         1 <0>         0.0727
     49 H16        -7.1365    0.7033    2.9683 H         1 <0>         0.0732
     50 H17        -5.5159    0.8701    2.2514 H         1 <0>         0.0825
     51 H18        -5.7866    0.8051   -1.0097 H         1 <0>         0.1406
     52 H19        -7.1022    2.4986   -2.2179 H         1 <0>         0.1292
     53 H20        -5.9784    0.7104   -5.9333 H         1 <0>         0.1263
     54 H21        -4.6575   -0.9740   -4.7181 H         1 <0>         0.1306
     55 H22        -6.3432    2.6533   -6.6259 H         1 <0>         0.0855
     56 H23        -7.7732    1.5962   -6.5499 H         1 <0>         0.1083
     57 H24        -8.2856    3.5811   -7.9036 H         1 <0>         0.1485
     58 H25        -9.2252    3.6292   -6.3926 H         1 <0>         0.1420
     59 H26        -8.6494    6.0394   -7.9809 H         1 <0>         0.1291
     60 H27        -9.4964    5.9238   -6.4202 H         1 <0>         0.1308
     61 H28        -8.6131    8.2122   -6.7879 H         1 <0>         0.1130
     62 H29        -7.8170    7.4356   -5.3971 H         1 <0>         0.0879
     63 H30        -6.7073    7.6291   -8.2356 H         1 <0>         0.0821
     64 H31        -6.1306    8.5359   -6.8149 H         1 <0>         0.0947
     65 H32        -4.7130    6.5295   -7.2969 H         1 <0>         0.1122
     66 H33        -5.4954    6.4339   -5.7001 H         1 <0>         0.0878
     67 H34        -5.6894    4.2813   -6.9171 H         1 <0>         0.1272
     68 H35        -6.5060    5.1146   -8.2606 H         1 <0>         0.1301
     69 H36        -7.4689    5.0351   -5.4905 H         1 <0>         0.4295
@<TRIPOS>BOND
     1    1    2 1
     2    1   34 1
     3    1   35 1
     4    1   36 1
     5    2    3 1
     6    2   37 1
     7    2   38 1
     8    3    8 ar
     9    3    4 ar
    10    4    5 ar
    11    4   39 1
    12    5    6 ar
    13    5   40 1
    14    6   12 1
    15    6    7 ar
    16    7    8 ar
    17    7    9 1
    18    8   41 1
    19    9   10 1
    20    9   19 1
    21    9   42 1
    22   10   11 1
    23   10   43 1
    24   10   44 1
    25   11   16 ar
    26   11   12 ar
    27   12   13 ar
    28   13   14 ar
    29   13   18 1
    30   14   15 ar
    31   14   45 1
    32   15   16 ar
    33   15   17 1
    34   16   46 1
    35   17   47 1
    36   18   48 1
    37   18   49 1
    38   18   50 1
    39   19   24 ar
    40   19   20 ar
    41   20   21 ar
    42   20   51 1
    43   21   22 ar
    44   21   52 1
    45   22   23 ar
    46   22   25 1
    47   23   24 ar
    48   23   53 1
    49   24   54 1
    50   25   26 1
    51   26   27 1
    52   26   55 1
    53   26   56 1
    54   27   28 1
    55   27   57 1
    56   27   58 1
    57   28   33 1
    58   28   29 1
    59   28   69 1
    60   29   30 1
    61   29   59 1
    62   29   60 1
    63   30   31 1
    64   30   61 1
    65   30   62 1
    66   31   32 1
    67   31   63 1
    68   31   64 1
    69   32   33 1
    70   32   65 1
    71   32   66 1
    72   33   67 1
    73   33   68 1
@<TRIPOS>MOLECULE
CHEMBL335465
   36    38     0     0     0
SMALL
USER_CHARGES

@<TRIPOS>ATOM
      1 C1         -0.0167    1.3792    0.0096 C.ar      1 <0>        -0.1138
      2 C2          1.1685    2.0927    0.0021 C.ar      1 <0>        -0.1203
      3 C3          2.3774    1.4276   -0.0134 C.ar      1 <0>        -0.1063
      4 C4          2.4028    0.0333   -0.0211 C.ar      1 <0>        -0.0529
      5 C5          1.2047   -0.6805   -0.0130 C.ar      1 <0>        -0.0900
      6 C6          0.0021   -0.0041    0.0020 C.ar      1 <0>        -0.1185
      7 C7          3.6973   -0.6869   -0.0382 C.ar      1 <0>        -0.0149
      8 C8          4.6767   -0.3394   -0.9672 C.ar      1 <0>        -0.1096
      9 C9          5.8805   -1.0070   -0.9854 C.ar      1 <0>        -0.0751
     10 C10         6.1279   -2.0374   -0.0729 C.ar      1 <0>        -0.0576
     11 C11         5.1547   -2.3928    0.8606 C.ar      1 <0>        -0.0710
     12 C12         3.9413   -1.7169    0.8856 C.ar      1 <0>        -0.0385
     13 C13         2.9048   -2.0857    1.8795 C.ar      1 <0>        -0.0483
     14 C14         2.2918   -1.0989    2.6500 C.ar      1 <0>        -0.0913
     15 C15         1.3273   -1.4480    3.5732 C.ar      1 <0>        -0.1180
     16 C16         0.9685   -2.7742    3.7348 C.ar      1 <0>        -0.1148
     17 C17         1.5734   -3.7577    2.9729 C.ar      1 <0>        -0.1198
     18 C18         2.5354   -3.4199    2.0429 C.ar      1 <0>        -0.1081
     19 C19         7.4199   -2.7498   -0.0982 C.2       1 <0>         0.1456
     20 N1          8.3231   -2.4209   -0.9642 N.2       1 <0>        -0.3313
     21 O1          9.5629   -3.1045   -0.9885 O.3       1 <0>        -0.4089
     22 H1         -0.9604    1.9042    0.0260 H         1 <0>         0.1221
     23 H2          1.1476    3.1725    0.0081 H         1 <0>         0.1240
     24 H3          3.3020    1.9857   -0.0199 H         1 <0>         0.1239
     25 H4          1.2181   -1.7604   -0.0192 H         1 <0>         0.1216
     26 H5         -0.9264   -0.5557    0.0079 H         1 <0>         0.1226
     27 H6          4.4905    0.4551   -1.6746 H         1 <0>         0.1324
     28 H7          6.6363   -0.7342   -1.7070 H         1 <0>         0.1362
     29 H8          5.3456   -3.1886    1.5654 H         1 <0>         0.1347
     30 H9          2.5714   -0.0633    2.5250 H         1 <0>         0.1212
     31 H10         0.8519   -0.6844    4.1710 H         1 <0>         0.1224
     32 H11         0.2134   -3.0428    4.4587 H         1 <0>         0.1218
     33 H12         1.2893   -4.7915    3.1033 H         1 <0>         0.1238
     34 H13         3.0038   -4.1880    1.4455 H         1 <0>         0.1237
     35 H14         7.6116   -3.5457    0.6062 H         1 <0>         0.1254
     36 H15        10.1728   -2.7889   -1.6693 H         1 <0>         0.4078
@<TRIPOS>BOND
     1    1    6 ar
     2    1    2 ar
     3    1   22 1
     4    2    3 ar
     5    2   23 1
     6    3    4 ar
     7    3   24 1
     8    4    5 ar
     9    4    7 1
    10    5    6 ar
    11    5   25 1
    12    6   26 1
    13    7   12 ar
    14    7    8 ar
    15    8    9 ar
    16    8   27 1
    17    9   10 ar
    18    9   28 1
    19   10   11 ar
    20   10   19 1
    21   11   12 ar
    22   11   29 1
    23   12   13 1
    24   13   18 ar
    25   13   14 ar
    26   14   15 ar
    27   14   30 1
    28   15   16 ar
    29   15   31 1
    30   16   17 ar
    31   16   32 1
    32   17   18 ar
    33   17   33 1
    34   18   34 1
    35   19   20 2
    36   19   35 1
    37   20   21 1
    38   21   36 1
@<TRIPOS>MOLECULE
CHEMBL432454
   64    69     0     0     0
SMALL
USER_CHARGES

@<TRIPOS>ATOM
      1 C1         -0.0169    1.3936    0.0097 C.ar      1 <0>        -0.0753
      2 C2          1.1683    2.0965    0.0022 C.ar      1 <0>        -0.1410
      3 C3          2.3804    1.4185   -0.0131 C.ar      1 <0>         0.1170
      4 C4          2.4043    0.0297   -0.0207 C.ar      1 <0>        -0.1438
      5 C5          1.2244   -0.6820   -0.0133 C.ar      1 <0>        -0.0878
      6 C6          0.0021   -0.0041    0.0020 C.ar      1 <0>        -0.0551
      7 C7         -1.2624   -0.7604    0.0100 C.2       1 <0>        -0.0794
      8 C8         -2.1823   -0.7723   -0.9657 C.2       1 <0>        -0.0566
      9 C9         -3.3134   -1.6420   -0.6069 C.ar      1 <0>        -0.0430
     10 C10        -4.4907   -1.9667   -1.2882 C.ar      1 <0>        -0.1131
     11 C11        -5.4055   -2.8293   -0.7112 C.ar      1 <0>         0.1251
     12 C12        -5.1589   -3.3739    0.5425 C.ar      1 <0>        -0.1309
     13 C13        -3.9959   -3.0551    1.2211 C.ar      1 <0>        -0.0733
     14 C14        -3.0797   -2.1978    0.6563 C.ar      1 <0>        -0.0998
     15 C15        -1.7494   -1.6628    1.1123 C.3       1 <0>        -0.0763
     16 C16        -1.8856   -0.9102    2.4085 C.2       1 <0>         0.4345
     17 O1         -2.5851    0.0603    2.6077 O.2       1 <0>        -0.3875
     18 C17        -1.0106   -1.5736    3.3894 C.ar      1 <0>        -0.1609
     19 C18        -0.7636   -1.2803    4.7345 C.ar      1 <0>        -0.0141
     20 C19         0.1115   -2.0564    5.4639 C.ar      1 <0>        -0.1830
     21 C20         0.7555   -3.1362    4.8708 C.ar      1 <0>         0.1413
     22 C21         0.5237   -3.4430    3.5362 C.ar      1 <0>        -0.0849
     23 C22        -0.3584   -2.6678    2.7849 C.ar      1 <0>        -0.0965
     24 C23        -0.7724   -2.7776    1.3727 C.2       1 <0>         0.4353
     25 O2         -0.3970   -3.6086    0.5738 O.2       1 <0>        -0.3854
     26 O3          1.6145   -3.8934    5.5987 O.3       1 <0>        -0.3195
     27 C24         1.8078   -3.5229    6.9652 C.3       1 <0>         0.0212
     28 C25         2.8023   -4.4847    7.6186 C.3       1 <0>        -0.0012
     29 N1          4.1188   -4.3329    6.9848 N.4       1 <0>        -0.3853
     30 C26         4.6362   -2.9855    7.2517 C.3       1 <0>        -0.0143
     31 C27         5.9700   -2.7943    6.5265 C.3       1 <0>        -0.1455
     32 C28         6.9725   -3.8368    7.0299 C.3       1 <0>        -0.1393
     33 C29         6.3901   -5.2365    6.8141 C.3       1 <0>        -0.1470
     34 C30         5.0407   -5.3373    7.5287 C.3       1 <0>        -0.0069
     35 O4         -6.5498   -3.1446   -1.3732 O.3       1 <0>        -0.4936
     36 O5          3.5463    2.1158   -0.0209 O.3       1 <0>        -0.4957
     37 H1         -0.9588    1.9217    0.0260 H         1 <0>         0.1348
     38 H2          1.1546    3.1764    0.0077 H         1 <0>         0.1368
     39 H3          3.3492   -0.4932   -0.0329 H         1 <0>         0.1325
     40 H4          1.2440   -1.7618   -0.0196 H         1 <0>         0.1256
     41 H5         -2.1036   -0.2183   -1.8895 H         1 <0>         0.1528
     42 H6         -4.6856   -1.5445   -2.2630 H         1 <0>         0.1405
     43 H7         -5.8761   -4.0469    0.9885 H         1 <0>         0.1417
     44 H8         -3.8070   -3.4800    2.1958 H         1 <0>         0.1280
     45 H9         -1.2596   -0.4431    5.2030 H         1 <0>         0.1500
     46 H10         0.2982   -1.8241    6.5020 H         1 <0>         0.1451
     47 H11         1.0272   -4.2827    3.0802 H         1 <0>         0.1510
     48 H12         2.1992   -2.5068    7.0144 H         1 <0>         0.0915
     49 H13         0.8553   -3.5712    7.4930 H         1 <0>         0.1150
     50 H14         2.8824   -4.2576    8.6817 H         1 <0>         0.1520
     51 H15         2.4537   -5.5096    7.4913 H         1 <0>         0.1449
     52 H16         3.9202   -2.2447    6.8959 H         1 <0>         0.1270
     53 H17         4.7850   -2.8598    8.3242 H         1 <0>         0.1313
     54 H18         5.8223   -2.9195    5.4539 H         1 <0>         0.0880
     55 H19         6.3534   -1.7939    6.7274 H         1 <0>         0.1127
     56 H20         7.9066   -3.7413    6.4762 H         1 <0>         0.0952
     57 H21         7.1595   -3.6795    8.0922 H         1 <0>         0.0824
     58 H22         6.2511   -5.4125    5.7475 H         1 <0>         0.0883
     59 H23         7.0737   -5.9819    7.2206 H         1 <0>         0.1137
     60 H24         5.1809   -5.1614    8.5952 H         1 <0>         0.1299
     61 H25         4.6233   -6.3327    7.3773 H         1 <0>         0.1318
     62 H26        -6.4730   -3.9218   -1.9433 H         1 <0>         0.3978
     63 H27         3.8924    2.3132    0.8602 H         1 <0>         0.3921
     64 H28         4.0286   -4.4651    5.9886 H         1 <0>         0.4292
@<TRIPOS>BOND
     1    1    6 ar
     2    1    2 ar
     3    1   37 1
     4    2    3 ar
     5    2   38 1
     6    3    4 ar
     7    3   36 1
     8    4    5 ar
     9    4   39 1
    10    5    6 ar
    11    5   40 1
    12    6    7 1
    13    7   15 1
    14    7    8 2
    15    8    9 1
    16    8   41 1
    17    9   14 ar
    18    9   10 ar
    19   10   11 ar
    20   10   42 1
    21   11   12 ar
    22   11   35 1
    23   12   13 ar
    24   12   43 1
    25   13   14 ar
    26   13   44 1
    27   14   15 1
    28   15   24 1
    29   15   16 1
    30   16   17 2
    31   16   18 1
    32   18   23 ar
    33   18   19 ar
    34   19   20 ar
    35   19   45 1
    36   20   21 ar
    37   20   46 1
    38   21   22 ar
    39   21   26 1
    40   22   23 ar
    41   22   47 1
    42   23   24 1
    43   24   25 2
    44   26   27 1
    45   27   28 1
    46   27   48 1
    47   27   49 1
    48   28   29 1
    49   28   50 1
    50   28   51 1
    51   29   34 1
    52   29   30 1
    53   29   64 1
    54   30   31 1
    55   30   52 1
    56   30   53 1
    57   31   32 1
    58   31   54 1
    59   31   55 1
    60   32   33 1
    61   32   56 1
    62   32   57 1
    63   33   34 1
    64   33   58 1
    65   33   59 1
    66   34   60 1
    67   34   61 1
    68   35   62 1
    69   36   63 1
@<TRIPOS>MOLECULE
CHEMBL432454__1
   64    69     0     0     0
SMALL
USER_CHARGES

@<TRIPOS>ATOM
      1 C1          0.3005    0.8417   -0.2383 C.ar      1 <0>        -0.0764
      2 C2          1.5064    1.5079   -0.2617 C.ar      1 <0>        -0.1421
      3 C3          2.6973    0.7953   -0.2021 C.ar      1 <0>         0.1184
      4 C4          2.6788   -0.5911   -0.1187 C.ar      1 <0>        -0.1427
      5 C5          1.4778   -1.2661   -0.0947 C.ar      1 <0>        -0.0861
      6 C6          0.2768   -0.5534   -0.1545 C.ar      1 <0>        -0.0582
      7 C7         -1.0101   -1.2705   -0.1291 C.2       1 <0>        -0.0768
      8 C8         -1.9070   -1.3201   -1.1247 C.2       1 <0>        -0.0587
      9 C9         -3.0722   -2.1312   -0.7387 C.ar      1 <0>        -0.0416
     10 C10        -4.2411   -2.4678   -1.4284 C.ar      1 <0>        -0.1133
     11 C11        -5.1963   -3.2616   -0.8192 C.ar      1 <0>         0.1251
     12 C12        -4.9988   -3.7250    0.4752 C.ar      1 <0>        -0.1320
     13 C13        -3.8435   -3.3950    1.1614 C.ar      1 <0>        -0.0735
     14 C14        -2.8864   -2.6069    0.5644 C.ar      1 <0>        -0.0996
     15 C15        -1.5503   -2.0840    1.0170 C.3       1 <0>        -0.0768
     16 C16        -0.6145   -3.2088    1.3698 C.2       1 <0>         0.4350
     17 O1         -0.2512   -4.1013    0.6335 O.2       1 <0>        -0.3899
     18 C17        -0.2230   -3.0221    2.7768 C.ar      1 <0>        -0.1639
     19 C18         0.6243   -3.7775    3.5941 C.ar      1 <0>        -0.0134
     20 C19         0.8422   -3.4010    4.9021 C.ar      1 <0>        -0.1839
     21 C20         0.2225   -2.2699    5.4207 C.ar      1 <0>         0.1425
     22 C21        -0.6219   -1.5067    4.6248 C.ar      1 <0>        -0.0857
     23 C22        -0.8516   -1.8733    3.2996 C.ar      1 <0>        -0.0935
     24 C23        -1.6890   -1.2455    2.2590 C.2       1 <0>         0.4349
     25 O2         -2.3612   -0.2441    2.3816 O.2       1 <0>        -0.3829
     26 O3          0.4432   -1.9102    6.7102 O.3       1 <0>        -0.3202
     27 C24         1.3220   -2.7390    7.4737 C.3       1 <0>         0.0215
     28 C25         1.4470   -2.1792    8.8921 C.3       1 <0>        -0.0011
     29 N1          0.1388   -2.2364    9.5581 N.4       1 <0>        -0.3854
     30 C26         0.2230   -1.5590   10.8575 C.3       1 <0>        -0.0070
     31 C27        -1.1564   -1.5446   11.5197 C.3       1 <0>        -0.1471
     32 C28        -1.6339   -2.9853   11.7234 C.3       1 <0>        -0.1392
     33 C29        -1.6467   -3.7043   10.3713 C.3       1 <0>        -0.1458
     34 C30        -0.2492   -3.6387    9.7516 C.3       1 <0>        -0.0136
     35 O4         -6.3324   -3.5888   -1.4894 O.3       1 <0>        -0.4940
     36 O5          3.8838    1.4565   -0.2260 O.3       1 <0>        -0.4958
     37 H1         -0.6250    1.3968   -0.2802 H         1 <0>         0.1339
     38 H2          1.5258    2.5857   -0.3269 H         1 <0>         0.1364
     39 H3          3.6073   -1.1408   -0.0729 H         1 <0>         0.1342
     40 H4          1.4644   -2.3441   -0.0302 H         1 <0>         0.1265
     41 H5         -1.7900   -0.8307   -2.0803 H         1 <0>         0.1529
     42 H6         -4.3980   -2.1086   -2.4348 H         1 <0>         0.1406
     43 H7         -5.7481   -4.3435    0.9468 H         1 <0>         0.1411
     44 H8         -3.6926   -3.7568    2.1678 H         1 <0>         0.1271
     45 H9          1.1089   -4.6583    3.1993 H         1 <0>         0.1502
     46 H10         1.4979   -3.9885    5.5277 H         1 <0>         0.1452
     47 H11        -1.1007   -0.6288    5.0328 H         1 <0>         0.1508
     48 H12         0.9206   -3.7515    7.5167 H         1 <0>         0.0916
     49 H13         2.3047   -2.7574    7.0025 H         1 <0>         0.1150
     50 H14         2.1674   -2.7729    9.4548 H         1 <0>         0.1520
     51 H15         1.7862   -1.1444    8.8458 H         1 <0>         0.1445
     52 H16         0.9276   -2.0892   11.4982 H         1 <0>         0.1299
     53 H17         0.5660   -0.5348   10.7113 H         1 <0>         0.1317
     54 H18        -1.0915   -1.0428   12.4852 H         1 <0>         0.1137
     55 H19        -1.8618   -1.0143   10.8799 H         1 <0>         0.0884
     56 H20        -0.9566   -3.5010   12.4041 H         1 <0>         0.0824
     57 H21        -2.6399   -2.9800   12.1429 H         1 <0>         0.0952
     58 H22        -1.9322   -4.7463   10.5159 H         1 <0>         0.1128
     59 H23        -2.3623   -3.2189    9.7077 H         1 <0>         0.0881
     60 H24        -0.2547   -4.1499    8.7889 H         1 <0>         0.1269
     61 H25         0.4655   -4.1246   10.4159 H         1 <0>         0.1313
     62 H26        -6.2649   -4.4055   -2.0027 H         1 <0>         0.3980
     63 H27         4.2153    1.7014    0.6488 H         1 <0>         0.3931
     64 H28        -0.5502   -1.7740    8.9840 H         1 <0>         0.4293
@<TRIPOS>BOND
     1    1    6 ar
     2    1    2 ar
     3    1   37 1
     4    2    3 ar
     5    2   38 1
     6    3    4 ar
     7    3   36 1
     8    4    5 ar
     9    4   39 1
    10    5    6 ar
    11    5   40 1
    12    6    7 1
    13    7   15 1
    14    7    8 2
    15    8    9 1
    16    8   41 1
    17    9   14 ar
    18    9   10 ar
    19   10   11 ar
    20   10   42 1
    21   11   12 ar
    22   11   35 1
    23   12   13 ar
    24   12   43 1
    25   13   14 ar
    26   13   44 1
    27   14   15 1
    28   15   24 1
    29   15   16 1
    30   16   17 2
    31   16   18 1
    32   18   23 ar
    33   18   19 ar
    34   19   20 ar
    35   19   45 1
    36   20   21 ar
    37   20   46 1
    38   21   22 ar
    39   21   26 1
    40   22   23 ar
    41   22   47 1
    42   23   24 1
    43   24   25 2
    44   26   27 1
    45   27   28 1
    46   27   48 1
    47   27   49 1
    48   28   29 1
    49   28   50 1
    50   28   51 1
    51   29   34 1
    52   29   30 1
    53   29   64 1
    54   30   31 1
    55   30   52 1
    56   30   53 1
    57   31   32 1
    58   31   54 1
    59   31   55 1
    60   32   33 1
    61   32   56 1
    62   32   57 1
    63   33   34 1
    64   33   58 1
    65   33   59 1
    66   34   60 1
    67   34   61 1
    68   35   62 1
    69   36   63 1
@<TRIPOS>MOLECULE
CHEMBL278936
   38    41     0     0     0
SMALL
USER_CHARGES

@<TRIPOS>ATOM
      1 C1         -0.0167    1.3784    0.0096 C.ar      1 <0>        -0.0863
      2 C2          1.1695    2.0865    0.0021 C.ar      1 <0>        -0.1445
      3 C3          2.3802    1.4093   -0.0131 C.ar      1 <0>         0.1139
      4 C4          2.3963    0.0221   -0.0206 C.ar      1 <0>        -0.1461
      5 C5          1.2074   -0.6814   -0.0130 C.ar      1 <0>        -0.0764
      6 C6          0.0021   -0.0041    0.0020 C.ar      1 <0>        -0.0976
      7 C7         -1.2934   -0.7740    0.0107 C.3       1 <0>         0.1437
      8 H1         -2.0959   -0.1318    0.3735 H         1 <0>         0.0874
      9 C8         -1.6165   -1.2423   -1.4037 C.3       1 <0>        -0.1125
     10 H2         -1.6635   -0.3914   -2.0833 H         1 <0>         0.1085
     11 C9         -0.5633   -2.2553   -1.8848 C.3       1 <0>        -0.1816
     12 C10        -1.3083   -3.3292   -2.6515 C.2       1 <0>         0.3729
     13 O1         -0.8234   -4.3076   -3.1671 O.2       1 <0>        -0.4401
     14 C11        -2.7778   -2.9472   -2.6504 C.3       1 <0>        -0.1768
     15 C12        -2.9512   -2.0124   -1.4141 C.3       1 <0>        -0.0383
     16 H3         -3.8006   -1.3380   -1.5226 H         1 <0>         0.1124
     17 C13        -3.0744   -2.8874   -0.1943 C.ar      1 <0>        -0.1399
     18 C14        -4.1098   -3.8098   -0.1508 C.ar      1 <0>        -0.1088
     19 C15        -4.2656   -4.6366    0.9487 C.ar      1 <0>         0.0782
     20 C16        -3.3832   -4.5445    2.0151 C.ar      1 <0>        -0.1096
     21 C17        -2.3528   -3.6279    1.9743 C.ar      1 <0>        -0.1269
     22 C18        -2.1965   -2.7979    0.8694 C.ar      1 <0>         0.1235
     23 O2         -1.1673   -1.9089    0.8671 O.3       1 <0>        -0.3019
     24 O3         -5.2832   -5.5380    0.9834 O.3       1 <0>        -0.4971
     25 O4          3.5484    2.1036   -0.0209 O.3       1 <0>        -0.4996
     26 H4         -0.9594    1.9052    0.0259 H         1 <0>         0.1305
     27 H5          1.1543    3.1664    0.0076 H         1 <0>         0.1329
     28 H6          3.3375   -0.5074   -0.0328 H         1 <0>         0.1317
     29 H7          1.2194   -1.7613   -0.0189 H         1 <0>         0.1316
     30 H8          0.1569   -1.7626   -2.5380 H         1 <0>         0.1056
     31 H9         -0.0511   -2.6954   -1.0292 H         1 <0>         0.1084
     32 H10        -3.0302   -2.4041   -3.5612 H         1 <0>         0.1114
     33 H11        -3.4015   -3.8355   -2.5510 H         1 <0>         0.0993
     34 H12        -4.7981   -3.8835   -0.9798 H         1 <0>         0.1333
     35 H13        -3.5025   -5.1878    2.8743 H         1 <0>         0.1372
     36 H14        -1.6651   -3.5545    2.8037 H         1 <0>         0.1376
     37 H15        -5.0560   -6.4021    0.6136 H         1 <0>         0.3901
     38 H16         3.8951    2.3001    0.8601 H         1 <0>         0.3938
@<TRIPOS>BOND
     1    1    6 ar
     2    1    2 ar
     3    1   26 1
     4    2    3 ar
     5    2   27 1
     6    3    4 ar
     7    3   25 1
     8    4    5 ar
     9    4   28 1
    10    5    6 ar
    11    5   29 1
    12    6    7 1
    13    7    8 1
    14    7   23 1
    15    7    9 1
    16    9   10 1
    17    9   15 1
    18    9   11 1
    19   11   12 1
    20   11   30 1
    21   11   31 1
    22   12   13 2
    23   12   14 1
    24   14   15 1
    25   14   32 1
    26   14   33 1
    27   15   16 1
    28   15   17 1
    29   17   22 ar
    30   17   18 ar
    31   18   19 ar
    32   18   34 1
    33   19   20 ar
    34   19   24 1
    35   20   21 ar
    36   20   35 1
    37   21   22 ar
    38   21   36 1
    39   22   23 1
    40   24   37 1
    41   25   38 1
@<TRIPOS>MOLECULE
CHEMBL235828
   41    44     0     0     0
SMALL
USER_CHARGES

@<TRIPOS>ATOM
      1 C1         -0.0167    1.3784    0.0096 C.ar      1 <0>        -0.0872
      2 C2          1.1695    2.0865    0.0021 C.ar      1 <0>        -0.1444
      3 C3          2.3802    1.4093   -0.0131 C.ar      1 <0>         0.1142
      4 C4          2.3963    0.0221   -0.0206 C.ar      1 <0>        -0.1460
      5 C5          1.2074   -0.6814   -0.0130 C.ar      1 <0>        -0.0754
      6 C6          0.0021   -0.0041    0.0020 C.ar      1 <0>        -0.0988
      7 C7         -1.2934   -0.7740    0.0107 C.3       1 <0>         0.1427
      8 H1         -2.0894   -0.1608   -0.4117 H         1 <0>         0.0891
      9 C8         -1.6530   -1.1725    1.4547 C.3       1 <0>        -0.1015
     10 H2         -1.6705   -0.2945    2.1004 H         1 <0>         0.1045
     11 C9         -0.5953   -2.1732    1.9376 C.3       1 <0>        -0.1685
     12 C10        -1.0596   -2.8015    3.2304 C.2       1 <0>         0.3645
     13 O1         -0.3526   -2.8059    4.2094 O.2       1 <0>        -0.4527
     14 C11        -2.4385   -3.4251    3.2613 C.3       1 <0>        -0.1711
     15 C12        -3.4423   -2.3784    2.7686 C.3       1 <0>        -0.1021
     16 C13        -3.0299   -1.8316    1.4110 C.3       1 <0>        -0.0465
     17 H3         -3.7537   -1.0739    1.1109 H         1 <0>         0.0921
     18 C14        -3.0535   -2.9073    0.3622 C.ar      1 <0>        -0.1369
     19 C15        -4.0213   -3.8946    0.4250 C.ar      1 <0>        -0.1089
     20 C16        -4.0638   -4.8932   -0.5345 C.ar      1 <0>         0.0754
     21 C17        -3.1328   -4.9028   -1.5628 C.ar      1 <0>        -0.1098
     22 C18        -2.1670   -3.9199   -1.6261 C.ar      1 <0>        -0.1291
     23 C19        -2.1208   -2.9178   -0.6629 C.ar      1 <0>         0.1251
     24 O2         -1.1487   -1.9720   -0.7541 O.3       1 <0>        -0.3047
     25 O3         -5.0163   -5.8615   -0.4686 O.3       1 <0>        -0.4967
     26 O4          3.5484    2.1036   -0.0209 O.3       1 <0>        -0.4994
     27 H4         -0.9594    1.9052    0.0259 H         1 <0>         0.1302
     28 H5          1.1543    3.1664    0.0076 H         1 <0>         0.1329
     29 H6          3.3375   -0.5074   -0.0328 H         1 <0>         0.1319
     30 H7          1.2194   -1.7613   -0.0189 H         1 <0>         0.1324
     31 H8         -0.4574   -2.9491    1.1845 H         1 <0>         0.1051
     32 H9          0.3485   -1.6538    2.1035 H         1 <0>         0.0955
     33 H10        -2.4636   -4.2964    2.6068 H         1 <0>         0.1009
     34 H11        -2.6860   -3.7218    4.2805 H         1 <0>         0.0928
     35 H12        -4.4291   -2.8344    2.6888 H         1 <0>         0.0841
     36 H13        -3.4848   -1.5555    3.4822 H         1 <0>         0.0763
     37 H14        -4.7462   -3.8868    1.2255 H         1 <0>         0.1346
     38 H15        -3.1639   -5.6793   -2.3129 H         1 <0>         0.1361
     39 H16        -1.4426   -3.9291   -2.4271 H         1 <0>         0.1365
     40 H17        -5.8309   -5.6448   -0.9425 H         1 <0>         0.3892
     41 H18         3.8951    2.3001    0.8601 H         1 <0>         0.3937
@<TRIPOS>BOND
     1    1    6 ar
     2    1    2 ar
     3    1   27 1
     4    2    3 ar
     5    2   28 1
     6    3    4 ar
     7    3   26 1
     8    4    5 ar
     9    4   29 1
    10    5    6 ar
    11    5   30 1
    12    6    7 1
    13    7    8 1
    14    7   24 1
    15    7    9 1
    16    9   10 1
    17    9   16 1
    18    9   11 1
    19   11   12 1
    20   11   31 1
    21   11   32 1
    22   12   13 2
    23   12   14 1
    24   14   15 1
    25   14   33 1
    26   14   34 1
    27   15   16 1
    28   15   35 1
    29   15   36 1
    30   16   17 1
    31   16   18 1
    32   18   23 ar
    33   18   19 ar
    34   19   20 ar
    35   19   37 1
    36   20   21 ar
    37   20   25 1
    38   21   22 ar
    39   21   38 1
    40   22   23 ar
    41   22   39 1
    42   23   24 1
    43   25   40 1
    44   26   41 1
@<TRIPOS>MOLECULE
CHEMBL372029
   62    66     0     0     0
SMALL
USER_CHARGES

@<TRIPOS>ATOM
      1 C1         -2.0474    1.1558    2.3788 C.3       1 <0>        -0.0473
      2 N1         -1.8725   -0.2911    2.1944 N.4       1 <0>        -0.3852
      3 C2         -0.5170   -0.6750    2.6062 C.3       1 <0>        -0.0068
      4 C3         -0.3559   -2.1924    2.4927 C.3       1 <0>        -0.1406
      5 C4         -0.5895   -2.6179    1.0403 C.3       1 <0>        -0.0537
      6 C5         -1.9779   -2.1470    0.5978 C.3       1 <0>        -0.1407
      7 C6         -2.0789   -0.6312    0.7815 C.3       1 <0>        -0.0068
      8 C7         -0.5096   -4.1191    0.9359 C.ar      1 <0>        -0.0929
      9 C8         -1.3867   -4.9097    1.6547 C.ar      1 <0>        -0.1147
     10 C9         -1.3134   -6.2867    1.5589 C.ar      1 <0>        -0.0969
     11 C10        -0.3633   -6.8733    0.7439 C.ar      1 <0>        -0.0788
     12 C11         0.5132   -6.0828    0.0244 C.ar      1 <0>        -0.0989
     13 C12         0.4371   -4.7056    0.1169 C.ar      1 <0>        -0.1054
     14 C13        -0.2827   -8.3746    0.6402 C.3       1 <0>         0.2350
     15 C14        -1.6287   -8.9227    0.2366 C.ar      1 <0>        -0.1017
     16 C15        -2.0527   -8.7006   -1.0672 C.ar      1 <0>        -0.0891
     17 C16        -3.2773   -9.1668   -1.4955 C.ar      1 <0>        -0.1452
     18 C17        -4.0934   -9.8628   -0.6151 C.ar      1 <0>         0.1161
     19 C18        -3.6681  -10.0870    0.6827 C.ar      1 <0>        -0.1475
     20 C19        -2.4313   -9.6217    1.1105 C.ar      1 <0>        -0.0457
     21 C20        -2.0240   -9.9270    2.5280 C.3       1 <0>        -0.1037
     22 C21        -0.9184   -8.9802    2.9922 C.3       1 <0>         0.1136
     23 N2          0.1091   -8.9331    1.9387 N.pl3     1 <0>        -0.6182
     24 C22         1.4048   -9.4020    2.1664 C.ar      1 <0>         0.2376
     25 C23         1.7137  -10.0407    3.3614 C.ar      1 <0>        -0.2038
     26 C24         2.9951  -10.5043    3.5863 C.ar      1 <0>        -0.0531
     27 C25         3.9730  -10.3349    2.6244 C.ar      1 <0>        -0.1993
     28 C26         3.6703   -9.6983    1.4291 C.ar      1 <0>         0.1539
     29 C27         2.3843   -9.2358    1.1973 C.ar      1 <0>        -0.2249
     30 O1          4.6330   -9.5326    0.4843 O.3       1 <0>        -0.5014
     31 O2         -5.3050  -10.3218   -1.0252 O.3       1 <0>        -0.4994
     32 H1         -3.0560    1.4409    2.0795 H         1 <0>         0.1239
     33 H2         -1.8944    1.4094    3.4278 H         1 <0>         0.1238
     34 H3         -1.3217    1.6905    1.7660 H         1 <0>         0.1218
     35 H4          0.2112   -0.1835    1.9610 H         1 <0>         0.1293
     36 H5         -0.3511   -0.3687    3.6390 H         1 <0>         0.1318
     37 H6          0.6518   -2.4753    2.7972 H         1 <0>         0.1141
     38 H7         -1.0835   -2.6850    3.1378 H         1 <0>         0.0896
     39 H8          0.1693   -2.1660    0.4015 H         1 <0>         0.0957
     40 H9         -2.1297   -2.3973   -0.4521 H         1 <0>         0.1141
     41 H10        -2.7392   -2.6386    1.2036 H         1 <0>         0.0897
     42 H11        -3.0662   -0.2926    0.4672 H         1 <0>         0.1318
     43 H12        -1.3175   -0.1406    0.1752 H         1 <0>         0.1293
     44 H13        -2.1290   -4.4514    2.2914 H         1 <0>         0.1175
     45 H14        -1.9981   -6.9044    2.1211 H         1 <0>         0.1271
     46 H15         1.2557   -6.5410   -0.6121 H         1 <0>         0.1267
     47 H16         1.1194   -4.0879   -0.4482 H         1 <0>         0.1252
     48 H17         0.4591   -8.6470   -0.1105 H         1 <0>         0.1047
     49 H18        -1.4176   -8.1576   -1.7514 H         1 <0>         0.1259
     50 H19        -3.6001   -8.9909   -2.5110 H         1 <0>         0.1318
     51 H20        -4.3031  -10.6282    1.3685 H         1 <0>         0.1306
     52 H21        -2.8892   -9.8156    3.1815 H         1 <0>         0.0882
     53 H22        -1.6633  -10.9541    2.5840 H         1 <0>         0.0872
     54 H23        -1.3293   -7.9833    3.1513 H         1 <0>         0.0736
     55 H24        -0.4799   -9.3513    3.9185 H         1 <0>         0.0941
     56 H25         0.9514  -10.1744    4.1147 H         1 <0>         0.1254
     57 H26         3.2335  -10.9999    4.5159 H         1 <0>         0.1284
     58 H27         4.9742  -10.6983    2.8034 H         1 <0>         0.1267
     59 H28         2.1460   -8.7437    0.2659 H         1 <0>         0.1236
     60 H29         4.6934  -10.2619   -0.1479 H         1 <0>         0.3943
     61 H30        -5.2820  -11.2139   -1.3978 H         1 <0>         0.3958
     62 H31        -2.5463   -0.7851    2.7601 H         1 <0>         0.4241
@<TRIPOS>BOND
     1    1    2 1
     2    1   32 1
     3    1   33 1
     4    1   34 1
     5    2    7 1
     6    2    3 1
     7    2   62 1
     8    3    4 1
     9    3   35 1
    10    3   36 1
    11    4    5 1
    12    4   37 1
    13    4   38 1
    14    5    6 1
    15    5    8 1
    16    5   39 1
    17    6    7 1
    18    6   40 1
    19    6   41 1
    20    7   42 1
    21    7   43 1
    22    8   13 ar
    23    8    9 ar
    24    9   10 ar
    25    9   44 1
    26   10   11 ar
    27   10   45 1
    28   11   12 ar
    29   11   14 1
    30   12   13 ar
    31   12   46 1
    32   13   47 1
    33   14   23 1
    34   14   15 1
    35   14   48 1
    36   15   20 ar
    37   15   16 ar
    38   16   17 ar
    39   16   49 1
    40   17   18 ar
    41   17   50 1
    42   18   19 ar
    43   18   31 1
    44   19   20 ar
    45   19   51 1
    46   20   21 1
    47   21   22 1
    48   21   52 1
    49   21   53 1
    50   22   23 1
    51   22   54 1
    52   22   55 1
    53   23   24 1
    54   24   29 ar
    55   24   25 ar
    56   25   26 ar
    57   25   56 1
    58   26   27 ar
    59   26   57 1
    60   27   28 ar
    61   27   58 1
    62   28   29 ar
    63   28   30 1
    64   29   59 1
    65   30   60 1
    66   31   61 1
@<TRIPOS>MOLECULE
CHEMBL372029__1
   62    66     0     0     0
SMALL
USER_CHARGES

@<TRIPOS>ATOM
      1 C1          0.2793    1.1956    1.8071 C.3       1 <0>        -0.0474
      2 N1          0.2026   -0.2705    1.7550 N.4       1 <0>        -0.3852
      3 C2          1.4158   -0.8002    1.1211 C.3       1 <0>        -0.0070
      4 C3          1.3781   -2.3298    1.1372 C.3       1 <0>        -0.1403
      5 C4          0.1455   -2.8127    0.3673 C.3       1 <0>        -0.0538
      6 C5         -1.1087   -2.1946    0.9918 C.3       1 <0>        -0.1408
      7 C6         -0.9789   -0.6700    0.9811 C.3       1 <0>        -0.0069
      8 C7          0.0593   -4.3152    0.4455 C.ar      1 <0>        -0.0931
      9 C8         -0.0563   -4.9379    1.6742 C.ar      1 <0>        -0.1148
     10 C9         -0.1354   -6.3161    1.7459 C.ar      1 <0>        -0.0972
     11 C10        -0.0994   -7.0716    0.5889 C.ar      1 <0>        -0.0780
     12 C11         0.0152   -6.4489   -0.6399 C.ar      1 <0>        -0.0994
     13 C12         0.0900   -5.0704   -0.7119 C.ar      1 <0>        -0.1054
     14 C13        -0.1847   -8.5742    0.6671 C.3       1 <0>         0.2353
     15 C14         0.8947   -9.0910    1.5851 C.ar      1 <0>        -0.1016
     16 C15         2.2076   -9.0342    1.1358 C.ar      1 <0>        -0.0890
     17 C16         3.2412   -9.4811    1.9312 C.ar      1 <0>        -0.1452
     18 C17         2.9663   -9.9907    3.1922 C.ar      1 <0>         0.1160
     19 C18         1.6572  -10.0506    3.6374 C.ar      1 <0>        -0.1476
     20 C19         0.6168   -9.6054    2.8321 C.ar      1 <0>        -0.0456
     21 C20        -0.7838   -9.7269    3.3723 C.3       1 <0>        -0.1036
     22 C21        -1.7367   -8.7928    2.6282 C.3       1 <0>         0.1130
     23 N2         -1.5011   -8.9620    1.1847 N.pl3     1 <0>        -0.6182
     24 C22        -2.4914   -9.4719    0.3421 C.ar      1 <0>         0.2377
     25 C23        -2.2827   -9.5139   -1.0312 C.ar      1 <0>        -0.2059
     26 C24        -3.2621  -10.0182   -1.8642 C.ar      1 <0>        -0.0535
     27 C25        -4.4514  -10.4827   -1.3350 C.ar      1 <0>        -0.1994
     28 C26        -4.6653  -10.4437    0.0356 C.ar      1 <0>         0.1549
     29 C27        -3.6830   -9.9428    0.8757 C.ar      1 <0>        -0.2232
     30 O1         -5.8353  -10.9008    0.5544 O.3       1 <0>        -0.5009
     31 O2          3.9780  -10.4296    3.9864 O.3       1 <0>        -0.4969
     32 H1         -0.6183    1.5897    2.2837 H         1 <0>         0.1239
     33 H2          1.1563    1.4934    2.3817 H         1 <0>         0.1239
     34 H3          0.3566    1.5916    0.7945 H         1 <0>         0.1218
     35 H4          1.4695   -0.4493    0.0904 H         1 <0>         0.1293
     36 H5          2.2923   -0.4530    1.6682 H         1 <0>         0.1317
     37 H6          2.2789   -2.7211    0.6645 H         1 <0>         0.1140
     38 H7          1.3247   -2.6817    2.1675 H         1 <0>         0.0895
     39 H8          0.2232   -2.5047   -0.6753 H         1 <0>         0.0957
     40 H9         -1.9855   -2.4893    0.4151 H         1 <0>         0.1142
     41 H10        -1.2138   -2.5437    2.0191 H         1 <0>         0.0896
     42 H11        -1.8703   -0.2267    1.4248 H         1 <0>         0.1319
     43 H12        -0.8742   -0.3219   -0.0466 H         1 <0>         0.1294
     44 H13        -0.0844   -4.3476    2.5782 H         1 <0>         0.1173
     45 H14        -0.2250   -6.8026    2.7060 H         1 <0>         0.1269
     46 H15         0.0437   -7.0392   -1.5439 H         1 <0>         0.1272
     47 H16         0.1759   -4.5837   -1.6722 H         1 <0>         0.1252
     48 H17        -0.0471   -8.9975   -0.3278 H         1 <0>         0.1063
     49 H18         2.4207   -8.6367    0.1545 H         1 <0>         0.1263
     50 H19         4.2595   -9.4351    1.5744 H         1 <0>         0.1320
     51 H20         1.4429  -10.4467    4.6190 H         1 <0>         0.1305
     52 H21        -1.1254  -10.7553    3.2548 H         1 <0>         0.0870
     53 H22        -0.7832   -9.4689    4.4313 H         1 <0>         0.0879
     54 H23        -2.7683   -9.0522    2.8664 H         1 <0>         0.0931
     55 H24        -1.5398   -7.7599    2.9154 H         1 <0>         0.0734
     56 H25        -1.3542   -9.1516   -1.4473 H         1 <0>         0.1202
     57 H26        -3.0985  -10.0494   -2.9313 H         1 <0>         0.1275
     58 H27        -5.2155  -10.8761   -1.9890 H         1 <0>         0.1268
     59 H28        -3.8461   -9.9155    1.9429 H         1 <0>         0.1286
     60 H29        -5.8240  -11.8406    0.7821 H         1 <0>         0.3950
     61 H30         4.3514   -9.7472    4.5609 H         1 <0>         0.3929
     62 H31         0.1285   -0.6359    2.6926 H         1 <0>         0.4240
@<TRIPOS>BOND
     1    1    2 1
     2    1   32 1
     3    1   33 1
     4    1   34 1
     5    2    7 1
     6    2    3 1
     7    2   62 1
     8    3    4 1
     9    3   35 1
    10    3   36 1
    11    4    5 1
    12    4   37 1
    13    4   38 1
    14    5    6 1
    15    5    8 1
    16    5   39 1
    17    6    7 1
    18    6   40 1
    19    6   41 1
    20    7   42 1
    21    7   43 1
    22    8   13 ar
    23    8    9 ar
    24    9   10 ar
    25    9   44 1
    26   10   11 ar
    27   10   45 1
    28   11   12 ar
    29   11   14 1
    30   12   13 ar
    31   12   46 1
    32   13   47 1
    33   14   23 1
    34   14   15 1
    35   14   48 1
    36   15   20 ar
    37   15   16 ar
    38   16   17 ar
    39   16   49 1
    40   17   18 ar
    41   17   50 1
    42   18   19 ar
    43   18   31 1
    44   19   20 ar
    45   19   51 1
    46   20   21 1
    47   21   22 1
    48   21   52 1
    49   21   53 1
    50   22   23 1
    51   22   54 1
    52   22   55 1
    53   23   24 1
    54   24   29 ar
    55   24   25 ar
    56   25   26 ar
    57   25   56 1
    58   26   27 ar
    59   26   57 1
    60   27   28 ar
    61   27   58 1
    62   28   29 ar
    63   28   30 1
    64   29   59 1
    65   30   60 1
    66   31   61 1
@<TRIPOS>MOLECULE
CHEMBL210063
   73    78     0     0     0
SMALL
USER_CHARGES

@<TRIPOS>ATOM
      1 C1          0.0088    1.3461   -0.8010 C.ar      1 <0>        -0.1183
      2 C2          1.1976    2.0510   -0.8256 C.ar      1 <0>        -0.1151
      3 C3          2.4025    1.3767   -0.7596 C.ar      1 <0>        -0.1168
      4 C4          2.4185   -0.0026   -0.6684 C.ar      1 <0>        -0.0826
      5 C5          1.2297   -0.7074   -0.6428 C.ar      1 <0>        -0.1169
      6 C6          0.0248   -0.0332   -0.7102 C.ar      1 <0>        -0.1149
      7 C7          3.7321   -0.7378   -0.5973 C.3       1 <0>        -0.0609
      8 C8          4.1519   -0.8917    0.8659 C.3       1 <0>        -0.0305
      9 C9          4.3137    0.4691    1.5455 C.3       1 <0>        -0.1090
     10 C10         5.4369    1.2389    0.8435 C.3       1 <0>        -0.1673
     11 C11         6.7206    0.4531    0.8877 C.2       1 <0>         0.3979
     12 O1          7.7856    1.0350    0.8554 O.2       1 <0>        -0.4520
     13 C12         6.6922   -1.0101    0.9690 C.2       1 <0>        -0.1613
     14 C13         5.4780   -1.6309    0.9923 C.2       1 <0>         0.0347
     15 C14         5.1520   -3.0329    1.1730 C.ar      1 <0>        -0.1050
     16 C15         5.9492   -4.1737    0.9705 C.ar      1 <0>        -0.0519
     17 C16         5.3863   -5.3904    1.2611 C.ar      1 <0>        -0.1600
     18 C17         4.0872   -5.5038    1.7357 C.ar      1 <0>         0.1353
     19 C18         3.2741   -4.3837    1.9278 C.ar      1 <0>        -0.1353
     20 C19         3.8184   -3.1540    1.6261 C.ar      1 <0>        -0.0447
     21 C20         3.1737   -1.7961    1.6410 C.3       1 <0>        -0.0867
     22 O2          3.5931   -6.7354    2.0206 O.3       1 <0>        -0.4989
     23 C21         7.9487   -1.7937    1.0244 C.ar      1 <0>        -0.0444
     24 C22         8.2581   -2.5390    2.1619 C.ar      1 <0>        -0.0613
     25 C23         9.4282   -3.2670    2.2101 C.ar      1 <0>        -0.1400
     26 C24        10.2979   -3.2587    1.1279 C.ar      1 <0>         0.1138
     27 C25         9.9930   -2.5179   -0.0061 C.ar      1 <0>        -0.1996
     28 C26         8.8219   -1.7922   -0.0632 C.ar      1 <0>        -0.0543
     29 O3         11.4504   -3.9769    1.1789 O.3       1 <0>        -0.3282
     30 C27        12.2993   -3.9236    0.0307 C.3       1 <0>         0.0252
     31 C28        13.5387   -4.7876    0.2722 C.3       1 <0>        -0.0009
     32 N1         13.1345   -6.1916    0.4254 N.4       1 <0>        -0.3840
     33 C29        14.3006   -6.9956    0.8108 C.3       1 <0>        -0.0072
     34 C30        13.8694   -8.4440    1.0506 C.3       1 <0>        -0.1466
     35 C31        13.2603   -9.0092   -0.2357 C.3       1 <0>        -0.1390
     36 C32        12.0913   -8.1199   -0.6690 C.3       1 <0>        -0.1451
     37 C33        12.5883   -6.6834   -0.8451 C.3       1 <0>        -0.0133
     38 H1         -0.9327    1.8733   -0.8481 H         1 <0>         0.1232
     39 H2          1.1851    3.1286   -0.8969 H         1 <0>         0.1237
     40 H3          3.3313    1.9274   -0.7796 H         1 <0>         0.1213
     41 H4          1.2422   -1.7850   -0.5718 H         1 <0>         0.1214
     42 H5         -0.9040   -0.5839   -0.6906 H         1 <0>         0.1234
     43 H6          3.6216   -1.7235   -1.0492 H         1 <0>         0.0806
     44 H7          4.4935   -0.1742   -1.1364 H         1 <0>         0.0797
     45 H8          3.3822    1.0297    1.4675 H         1 <0>         0.0918
     46 H9          4.5697    0.3254    2.5952 H         1 <0>         0.0769
     47 H10         5.1580    1.4156   -0.1954 H         1 <0>         0.1058
     48 H11         5.5834    2.1970    1.3421 H         1 <0>         0.1030
     49 H12         6.9615   -4.0951    0.6023 H         1 <0>         0.1328
     50 H13         5.9713   -6.2866    1.1160 H         1 <0>         0.1279
     51 H14         2.2633   -4.4775    2.2964 H         1 <0>         0.1431
     52 H15         3.0586   -1.4413    2.6652 H         1 <0>         0.0961
     53 H16         2.2071   -1.8289    1.1384 H         1 <0>         0.1003
     54 H17         3.7464   -7.0195    2.9321 H         1 <0>         0.3966
     55 H18         7.5821   -2.5456    3.0043 H         1 <0>         0.1335
     56 H19         9.6685   -3.8441    3.0908 H         1 <0>         0.1342
     57 H20        10.6720   -2.5133   -0.8460 H         1 <0>         0.1288
     58 H21         8.5830   -1.2200   -0.9475 H         1 <0>         0.1293
     59 H22        11.7588   -4.2985   -0.8385 H         1 <0>         0.0862
     60 H23        12.6044   -2.8925   -0.1481 H         1 <0>         0.1098
     61 H24        14.2169   -4.6953   -0.5761 H         1 <0>         0.1489
     62 H25        14.0433   -4.4538    1.1788 H         1 <0>         0.1426
     63 H26        15.0422   -6.9651    0.0125 H         1 <0>         0.1292
     64 H27        14.7349   -6.5902    1.7246 H         1 <0>         0.1310
     65 H28        14.7368   -9.0397    1.3349 H         1 <0>         0.1130
     66 H29        13.1279   -8.4756    1.8489 H         1 <0>         0.0878
     67 H30        14.0164   -9.0253   -1.0206 H         1 <0>         0.0821
     68 H31        12.9001  -10.0219   -0.0542 H         1 <0>         0.0946
     69 H32        11.6878   -8.4838   -1.6139 H         1 <0>         0.1122
     70 H33        11.3129   -8.1448    0.0936 H         1 <0>         0.0877
     71 H34        11.7586   -6.0476   -1.1538 H         1 <0>         0.1274
     72 H35        13.3664   -6.6597   -1.6081 H         1 <0>         0.1302
     73 H36        12.4287   -6.2609    1.1431 H         1 <0>         0.4292
@<TRIPOS>BOND
     1    1    6 ar
     2    1    2 ar
     3    1   38 1
     4    2    3 ar
     5    2   39 1
     6    3    4 ar
     7    3   40 1
     8    4    5 ar
     9    4    7 1
    10    5    6 ar
    11    5   41 1
    12    6   42 1
    13    7    8 1
    14    7   43 1
    15    7   44 1
    16    8   14 1
    17    8   21 1
    18    8    9 1
    19    9   10 1
    20    9   45 1
    21    9   46 1
    22   10   11 1
    23   10   47 1
    24   10   48 1
    25   11   12 2
    26   11   13 1
    27   13   14 2
    28   13   23 1
    29   14   15 1
    30   15   20 ar
    31   15   16 ar
    32   16   17 ar
    33   16   49 1
    34   17   18 ar
    35   17   50 1
    36   18   19 ar
    37   18   22 1
    38   19   20 ar
    39   19   51 1
    40   20   21 1
    41   21   52 1
    42   21   53 1
    43   22   54 1
    44   23   28 ar
    45   23   24 ar
    46   24   25 ar
    47   24   55 1
    48   25   26 ar
    49   25   56 1
    50   26   27 ar
    51   26   29 1
    52   27   28 ar
    53   27   57 1
    54   28   58 1
    55   29   30 1
    56   30   31 1
    57   30   59 1
    58   30   60 1
    59   31   32 1
    60   31   61 1
    61   31   62 1
    62   32   37 1
    63   32   33 1
    64   32   73 1
    65   33   34 1
    66   33   63 1
    67   33   64 1
    68   34   35 1
    69   34   65 1
    70   34   66 1
    71   35   36 1
    72   35   67 1
    73   35   68 1
    74   36   37 1
    75   36   69 1
    76   36   70 1
    77   37   71 1
    78   37   72 1
@<TRIPOS>MOLECULE
CHEMBL210063__1
   73    78     0     0     0
SMALL
USER_CHARGES

@<TRIPOS>ATOM
      1 C1         -0.1744    1.3196    0.8316 C.ar      1 <0>        -0.1183
      2 C2          1.0071    2.0295    0.7259 C.ar      1 <0>        -0.1151
      3 C3          2.2111    1.3572    0.6296 C.ar      1 <0>        -0.1170
      4 C4          2.2338   -0.0249    0.6395 C.ar      1 <0>        -0.0824
      5 C5          1.0524   -0.7348    0.7461 C.ar      1 <0>        -0.1167
      6 C6         -0.1517   -0.0626    0.8410 C.ar      1 <0>        -0.1149
      7 C7          3.5463   -0.7577    0.5336 C.3       1 <0>        -0.0613
      8 C8          4.1134   -0.9934    1.9349 C.3       1 <0>        -0.0306
      9 C9          3.1555   -1.8234    2.7915 C.3       1 <0>        -0.1088
     10 C10         2.9881   -3.2026    2.1462 C.3       1 <0>        -0.1672
     11 C11         4.3237   -3.8844    2.0083 C.2       1 <0>         0.3980
     12 O1          4.3843   -5.0969    2.0013 O.2       1 <0>        -0.4519
     13 C12         5.5510   -3.0930    1.8828 C.2       1 <0>        -0.1618
     14 C13         5.4440   -1.7333    1.8825 C.2       1 <0>         0.0341
     15 C14         6.4797   -0.7176    1.8792 C.ar      1 <0>        -0.1047
     16 C15         7.8234   -0.8062    1.4732 C.ar      1 <0>        -0.0636
     17 C16         8.5965    0.3177    1.6178 C.ar      1 <0>        -0.1603
     18 C17         8.0866    1.4971    2.1419 C.ar      1 <0>         0.1341
     19 C18         6.7505    1.6098    2.5355 C.ar      1 <0>        -0.1352
     20 C19         5.9551    0.4948    2.3824 C.ar      1 <0>        -0.0449
     21 C20         4.4803    0.3347    2.6255 C.3       1 <0>        -0.0864
     22 O2          8.9073    2.5698    2.2753 O.3       1 <0>        -0.4995
     23 C21         6.8723   -3.7524    1.7591 C.ar      1 <0>        -0.0423
     24 C22         7.6176   -3.6102    0.5888 C.ar      1 <0>        -0.0692
     25 C23         8.8467   -4.2252    0.4770 C.ar      1 <0>        -0.1420
     26 C24         9.3425   -4.9853    1.5277 C.ar      1 <0>         0.1153
     27 C25         8.6033   -5.1290    2.6941 C.ar      1 <0>        -0.1981
     28 C26         7.3760   -4.5120    2.8148 C.ar      1 <0>        -0.0517
     29 O3         10.5540   -5.5904    1.4141 O.3       1 <0>        -0.3279
     30 C27        11.0036   -6.3573    2.5329 C.3       1 <0>         0.0250
     31 C28        12.3761   -6.9574    2.2214 C.3       1 <0>        -0.0008
     32 N1         13.3534   -5.8760    2.0391 N.4       1 <0>        -0.3840
     33 C29        14.6300   -6.4431    1.5883 C.3       1 <0>        -0.0072
     34 C30        15.6273   -5.3141    1.3190 C.3       1 <0>        -0.1465
     35 C31        15.8478   -4.5170    2.6079 C.3       1 <0>        -0.1389
     36 C32        14.4991   -3.9927    3.1092 C.3       1 <0>        -0.1452
     37 C33        13.5437   -5.1706    3.3122 C.3       1 <0>        -0.0133
     38 H1         -1.1147    1.8448    0.9113 H         1 <0>         0.1231
     39 H2          0.9893    3.1093    0.7182 H         1 <0>         0.1232
     40 H3          3.1341    1.9119    0.5463 H         1 <0>         0.1211
     41 H4          1.0701   -1.8146    0.7535 H         1 <0>         0.1215
     42 H5         -1.0747   -0.6172    0.9239 H         1 <0>         0.1238
     43 H6          3.3883   -1.7164    0.0396 H         1 <0>         0.0804
     44 H7          4.2497   -0.1612   -0.0474 H         1 <0>         0.0808
     45 H8          3.5668   -1.9365    3.7946 H         1 <0>         0.0764
     46 H9          2.1876   -1.3249    2.8450 H         1 <0>         0.0918
     47 H10         2.3338   -3.8142    2.7675 H         1 <0>         0.1030
     48 H11         2.5389   -3.0870    1.1598 H         1 <0>         0.1061
     49 H12         8.2292   -1.7202    1.0653 H         1 <0>         0.1418
     50 H13         9.6327    0.2835    1.3152 H         1 <0>         0.1280
     51 H14         6.3586    2.5302    2.9425 H         1 <0>         0.1431
     52 H15         3.9293    1.1612    2.1767 H         1 <0>         0.1003
     53 H16         4.2755    0.2764    3.6945 H         1 <0>         0.0956
     54 H17         8.9278    3.1482    1.5006 H         1 <0>         0.3972
     55 H18         7.2324   -3.0193   -0.2291 H         1 <0>         0.1370
     56 H19         9.4242   -4.1157   -0.4290 H         1 <0>         0.1361
     57 H20         8.9917   -5.7213    3.5094 H         1 <0>         0.1290
     58 H21         6.8035   -4.6203    3.7242 H         1 <0>         0.1292
     59 H22        11.0793   -5.7125    3.4085 H         1 <0>         0.0863
     60 H23        10.2932   -7.1594    2.7327 H         1 <0>         0.1099
     61 H24        12.6898   -7.5952    3.0478 H         1 <0>         0.1489
     62 H25        12.3149   -7.5496    1.3083 H         1 <0>         0.1428
     63 H26        15.0274   -7.1017    2.3605 H         1 <0>         0.1291
     64 H27        14.4709   -7.0127    0.6727 H         1 <0>         0.1310
     65 H28        16.5750   -5.7374    0.9861 H         1 <0>         0.1130
     66 H29        15.2310   -4.6550    0.5466 H         1 <0>         0.0879
     67 H30        16.2917   -5.1635    3.3648 H         1 <0>         0.0821
     68 H31        16.5136   -3.6775    2.4078 H         1 <0>         0.0946
     69 H32        14.6404   -3.4714    4.0560 H         1 <0>         0.1122
     70 H33        14.0794   -3.3061    2.3740 H         1 <0>         0.0878
     71 H34        12.5825   -4.8009    3.6693 H         1 <0>         0.1274
     72 H35        13.9642   -5.8564    4.0477 H         1 <0>         0.1302
     73 H36        13.0115   -5.2285    1.3448 H         1 <0>         0.4292
@<TRIPOS>BOND
     1    1    6 ar
     2    1    2 ar
     3    1   38 1
     4    2    3 ar
     5    2   39 1
     6    3    4 ar
     7    3   40 1
     8    4    5 ar
     9    4    7 1
    10    5    6 ar
    11    5   41 1
    12    6   42 1
    13    7    8 1
    14    7   43 1
    15    7   44 1
    16    8   14 1
    17    8   21 1
    18    8    9 1
    19    9   10 1
    20    9   45 1
    21    9   46 1
    22   10   11 1
    23   10   47 1
    24   10   48 1
    25   11   12 2
    26   11   13 1
    27   13   14 2
    28   13   23 1
    29   14   15 1
    30   15   20 ar
    31   15   16 ar
    32   16   17 ar
    33   16   49 1
    34   17   18 ar
    35   17   50 1
    36   18   19 ar
    37   18   22 1
    38   19   20 ar
    39   19   51 1
    40   20   21 1
    41   21   52 1
    42   21   53 1
    43   22   54 1
    44   23   28 ar
    45   23   24 ar
    46   24   25 ar
    47   24   55 1
    48   25   26 ar
    49   25   56 1
    50   26   27 ar
    51   26   29 1
    52   27   28 ar
    53   27   57 1
    54   28   58 1
    55   29   30 1
    56   30   31 1
    57   30   59 1
    58   30   60 1
    59   31   32 1
    60   31   61 1
    61   31   62 1
    62   32   37 1
    63   32   33 1
    64   32   73 1
    65   33   34 1
    66   33   63 1
    67   33   64 1
    68   34   35 1
    69   34   65 1
    70   34   66 1
    71   35   36 1
    72   35   67 1
    73   35   68 1
    74   36   37 1
    75   36   69 1
    76   36   70 1
    77   37   71 1
    78   37   72 1
@<TRIPOS>MOLECULE
CHEMBL36037
   59    63     0     0     0
SMALL
USER_CHARGES

@<TRIPOS>ATOM
      1 C1          0.1837    1.5600   -0.0374 C.3       1 <0>        -0.1489
      2 C2          0.1520    0.0534   -0.0229 C.2       1 <0>         0.4557
      3 O1          0.1747   -0.5412    1.0287 O.2       1 <0>        -0.5118
      4 O2          0.0985   -0.6279   -1.1782 O.3       1 <0>        -0.3363
      5 C3          0.0712   -2.0491   -1.0900 C.3       1 <0>         0.0846
      6 H1          0.5853   -2.4076   -0.2076 H         1 <0>         0.0896
      7 C4         -1.3847   -2.5766   -1.1427 C.3       1 <0>        -0.1421
      8 C5         -1.3868   -3.7435   -2.1771 C.3       1 <0>        -0.1105
      9 C6          0.1070   -4.0809   -2.2952 C.3       1 <0>        -0.0797
     10 C7          0.7172   -2.6613   -2.3562 C.3       1 <0>        -0.0508
     11 C8          2.2203   -2.7133   -2.3250 C.3       1 <0>        -0.1054
     12 C9          2.7697   -3.7599   -3.3022 C.3       1 <0>        -0.1050
     13 C10         1.6951   -4.3305   -4.2103 C.3       1 <0>        -0.0453
     14 C11         0.5624   -4.9655   -3.4090 C.3       1 <0>        -0.0358
     15 C12        -0.5321   -5.4459   -4.3593 C.3       1 <0>        -0.1193
     16 H2         -0.9072   -4.6210   -4.9602 H         1 <0>         0.1298
     17 C13         0.0840   -6.5061   -5.2580 C.2       1 <0>         0.3928
     18 O3         -0.5749   -7.4644   -5.6096 O.2       1 <0>        -0.4179
     19 C14         1.4838   -6.3573   -5.6909 C.ar      1 <0>        -0.1468
     20 C15         2.2754   -5.3227   -5.1851 C.ar      1 <0>        -0.0358
     21 C16         3.5888   -5.2074   -5.5908 C.ar      1 <0>        -0.1152
     22 C17         4.1213   -6.1031   -6.5007 C.ar      1 <0>        -0.1049
     23 C18         3.3392   -7.1272   -7.0166 C.ar      1 <0>         0.0919
     24 C19         2.0217   -7.2587   -6.6138 C.ar      1 <0>        -0.0808
     25 O4          3.8657   -7.9984   -7.9171 O.3       1 <0>        -0.4946
     26 S1         -1.8944   -6.2106   -3.4319 S.3       1 <0>        -0.0486
     27 C20        -3.1050   -6.5603   -4.6635 C.ar      1 <0>        -0.0699
     28 C21        -2.8576   -6.2416   -5.9933 C.ar      1 <0>        -0.1060
     29 C22        -3.8081   -6.5173   -6.9562 C.ar      1 <0>        -0.0722
     30 C23        -5.0060   -7.1104   -6.5981 C.ar      1 <0>        -0.0957
     31 C24        -5.2554   -7.4289   -5.2748 C.ar      1 <0>        -0.0727
     32 C25        -4.3068   -7.1606   -4.3080 C.ar      1 <0>        -0.0957
     33 Br1        -6.3052   -7.4857   -7.9199 Br        1 <0>        -0.0489
     34 C26         0.2051   -1.8367   -3.5343 C.3       1 <0>        -0.1476
     35 H3          1.2182    1.9013   -0.0755 H         1 <0>         0.1046
     36 H4         -0.3522    1.9263   -0.9131 H         1 <0>         0.0940
     37 H5         -0.2920    1.9422    0.8658 H         1 <0>         0.1023
     38 H6         -1.6850   -2.9497   -0.1654 H         1 <0>         0.0740
     39 H7         -2.0596   -1.7890   -1.4725 H         1 <0>         0.0768
     40 H8         -1.9323   -4.5882   -1.7433 H         1 <0>         0.0852
     41 H9         -1.8218   -3.4432   -3.1186 H         1 <0>         0.0802
     42 H10         0.4152   -4.5464   -1.3342 H         1 <0>         0.0842
     43 H11         2.6270   -1.7245   -2.5821 H         1 <0>         0.0706
     44 H12         2.5589   -2.9498   -1.3060 H         1 <0>         0.0663
     45 H13         3.5539   -3.2972   -3.9145 H         1 <0>         0.0747
     46 H14         3.2325   -4.5778   -2.7352 H         1 <0>         0.0697
     47 H15         1.2943   -3.5397   -4.8395 H         1 <0>         0.1011
     48 H16         0.9881   -5.8828   -2.9403 H         1 <0>         0.0824
     49 H17         4.2122   -4.4158   -5.2038 H         1 <0>         0.1396
     50 H18         5.1503   -6.0030   -6.8117 H         1 <0>         0.1369
     51 H19         1.4107   -8.0549   -7.0121 H         1 <0>         0.1411
     52 H20         4.2739   -8.7786   -7.5173 H         1 <0>         0.3942
     53 H21        -1.9230   -5.7784   -6.2734 H         1 <0>         0.1197
     54 H22        -3.6166   -6.2696   -7.9898 H         1 <0>         0.1333
     55 H23        -6.1913   -7.8918   -4.9986 H         1 <0>         0.1378
     56 H24        -4.5002   -7.4135   -3.2760 H         1 <0>         0.1359
     57 H25         0.3838   -0.7787   -3.3423 H         1 <0>         0.0729
     58 H26         0.7300   -2.1349   -4.4419 H         1 <0>         0.0586
     59 H27        -0.8640   -2.0076   -3.6601 H         1 <0>         0.0636
@<TRIPOS>BOND
     1    1    2 1
     2    1   35 1
     3    1   36 1
     4    1   37 1
     5    2    3 2
     6    2    4 1
     7    4    5 1
     8    5    6 1
     9    5   10 1
    10    5    7 1
    11    7    8 1
    12    7   38 1
    13    7   39 1
    14    8    9 1
    15    8   40 1
    16    8   41 1
    17    9   14 1
    18    9   10 1
    19    9   42 1
    20   10   11 1
    21   10   34 1
    22   11   12 1
    23   11   43 1
    24   11   44 1
    25   12   13 1
    26   12   45 1
    27   12   46 1
    28   13   20 1
    29   13   14 1
    30   13   47 1
    31   14   15 1
    32   14   48 1
    33   15   16 1
    34   15   17 1
    35   15   26 1
    36   17   18 2
    37   17   19 1
    38   19   24 ar
    39   19   20 ar
    40   20   21 ar
    41   21   22 ar
    42   21   49 1
    43   22   23 ar
    44   22   50 1
    45   23   24 ar
    46   23   25 1
    47   24   51 1
    48   25   52 1
    49   26   27 1
    50   27   32 ar
    51   27   28 ar
    52   28   29 ar
    53   28   53 1
    54   29   30 ar
    55   29   54 1
    56   30   31 ar
    57   30   33 1
    58   31   32 ar
    59   31   55 1
    60   32   56 1
    61   34   57 1
    62   34   58 1
    63   34   59 1
@<TRIPOS>MOLECULE
CHEMBL36037__1
   59    63     0     0     0
SMALL
USER_CHARGES

@<TRIPOS>ATOM
      1 C1         -0.0184    1.5028    0.0103 C.3       1 <0>        -0.1483
      2 C2          0.0021   -0.0041    0.0020 C.2       1 <0>         0.4557
      3 O1          0.0203   -0.6138    1.0450 O.2       1 <0>        -0.5121
      4 O2          0.0001   -0.6689   -1.1641 O.3       1 <0>        -0.3387
      5 C3          0.0201   -2.0962   -1.0971 C.3       1 <0>         0.0953
      6 H1          0.5337   -2.4242   -0.1934 H         1 <0>         0.0863
      7 C4         -1.4243   -2.6554   -1.1267 C.3       1 <0>        -0.1357
      8 C5         -1.4973   -3.6162   -2.3451 C.3       1 <0>        -0.1199
      9 C6         -0.0342   -4.0242   -2.5471 C.3       1 <0>        -0.0929
     10 C7          0.7034   -2.6736   -2.3323 C.3       1 <0>        -0.0562
     11 C8          2.1835   -2.9778   -2.2087 C.3       1 <0>        -0.1070
     12 C9          2.6463   -3.5543   -3.5572 C.3       1 <0>        -0.1152
     13 C10         1.8427   -4.7959   -3.9359 C.3       1 <0>        -0.0448
     14 C11         0.3312   -4.5137   -3.9368 C.3       1 <0>        -0.0483
     15 C12        -0.4280   -5.8075   -4.2523 C.3       1 <0>        -0.1321
     16 H2         -0.0726   -6.2251   -5.1943 H         1 <0>         0.1300
     17 C13        -0.1571   -6.7803   -3.1235 C.2       1 <0>         0.4001
     18 O3         -1.0439   -7.4609   -2.6540 O.2       1 <0>        -0.4152
     19 C14         1.2264   -6.8697   -2.6161 C.ar      1 <0>        -0.1457
     20 C15         2.1807   -5.9228   -2.9984 C.ar      1 <0>        -0.0312
     21 C16         3.4700   -6.0196   -2.5053 C.ar      1 <0>        -0.1154
     22 C17         3.8155   -7.0430   -1.6436 C.ar      1 <0>        -0.1073
     23 C18         2.8736   -7.9888   -1.2609 C.ar      1 <0>         0.0933
     24 C19         1.5772   -7.9056   -1.7468 C.ar      1 <0>        -0.0847
     25 O4          3.2216   -8.9933   -0.4142 O.3       1 <0>        -0.4946
     26 S1         -2.2065   -5.4674   -4.3615 S.3       1 <0>        -0.0413
     27 C20        -2.9040   -7.0040   -4.8686 C.ar      1 <0>        -0.0750
     28 C21        -2.0838   -8.1066   -5.0751 C.ar      1 <0>        -0.1114
     29 C22        -2.6335   -9.3095   -5.4720 C.ar      1 <0>        -0.0711
     30 C23        -3.9996   -9.4177   -5.6641 C.ar      1 <0>        -0.0963
     31 C24        -4.8191   -8.3216   -5.4593 C.ar      1 <0>        -0.0720
     32 C25        -4.2761   -7.1174   -5.0572 C.ar      1 <0>        -0.0955
     33 Br1        -4.7482  -11.0668   -6.2083 Br        1 <0>        -0.0485
     34 C26         0.4623   -1.7566   -3.5331 C.3       1 <0>        -0.1436
     35 H3          1.0042    1.8801    0.0026 H         1 <0>         0.1045
     36 H4         -0.5455    1.8639   -0.8728 H         1 <0>         0.0942
     37 H5         -0.5286    1.8543    0.9071 H         1 <0>         0.1022
     38 H6         -1.6331   -3.2013   -0.2066 H         1 <0>         0.0744
     39 H7         -2.1384   -1.8409   -1.2492 H         1 <0>         0.0761
     40 H8         -2.1120   -4.4861   -2.1141 H         1 <0>         0.0875
     41 H9         -1.8777   -3.0961   -3.2242 H         1 <0>         0.0798
     42 H10         0.2626   -4.7573   -1.7970 H         1 <0>         0.0838
     43 H11         2.7330   -2.0625   -1.9886 H         1 <0>         0.0712
     44 H12         2.3470   -3.7090   -1.4171 H         1 <0>         0.0678
     45 H13         2.5193   -2.7974   -4.3313 H         1 <0>         0.0818
     46 H14         3.7014   -3.8194   -3.4887 H         1 <0>         0.0769
     47 H15         2.1272   -5.0933   -4.9452 H         1 <0>         0.0966
     48 H16         0.0960   -3.7465   -4.6746 H         1 <0>         0.1133
     49 H17         4.2115   -5.2903   -2.7963 H         1 <0>         0.1399
     50 H18         4.8250   -7.1079   -1.2654 H         1 <0>         0.1357
     51 H19         0.8408   -8.6382   -1.4511 H         1 <0>         0.1400
     52 H20         3.0971   -8.7805    0.5208 H         1 <0>         0.3942
     53 H21        -1.0175   -8.0227   -4.9257 H         1 <0>         0.1188
     54 H22        -1.9966  -10.1667   -5.6330 H         1 <0>         0.1334
     55 H23        -5.8849   -8.4093   -5.6100 H         1 <0>         0.1380
     56 H24        -4.9167   -6.2635   -4.8932 H         1 <0>         0.1362
     57 H25         0.8941   -0.7759   -3.3338 H         1 <0>         0.0664
     58 H26         0.9306   -2.1867   -4.4185 H         1 <0>         0.0645
     59 H27        -0.6096   -1.6541   -3.7025 H         1 <0>         0.0619
@<TRIPOS>BOND
     1    1    2 1
     2    1   35 1
     3    1   36 1
     4    1   37 1
     5    2    3 2
     6    2    4 1
     7    4    5 1
     8    5    6 1
     9    5   10 1
    10    5    7 1
    11    7    8 1
    12    7   38 1
    13    7   39 1
    14    8    9 1
    15    8   40 1
    16    8   41 1
    17    9   14 1
    18    9   10 1
    19    9   42 1
    20   10   11 1
    21   10   34 1
    22   11   12 1
    23   11   43 1
    24   11   44 1
    25   12   13 1
    26   12   45 1
    27   12   46 1
    28   13   20 1
    29   13   14 1
    30   13   47 1
    31   14   15 1
    32   14   48 1
    33   15   16 1
    34   15   17 1
    35   15   26 1
    36   17   18 2
    37   17   19 1
    38   19   24 ar
    39   19   20 ar
    40   20   21 ar
    41   21   22 ar
    42   21   49 1
    43   22   23 ar
    44   22   50 1
    45   23   24 ar
    46   23   25 1
    47   24   51 1
    48   25   52 1
    49   26   27 1
    50   27   32 ar
    51   27   28 ar
    52   28   29 ar
    53   28   53 1
    54   29   30 ar
    55   29   54 1
    56   30   31 ar
    57   30   33 1
    58   31   32 ar
    59   31   55 1
    60   32   56 1
    61   34   57 1
    62   34   58 1
    63   34   59 1
@<TRIPOS>MOLECULE
CHEMBL36037__2
   59    63     0     0     0
SMALL
USER_CHARGES

@<TRIPOS>ATOM
      1 C1          0.0752    1.5298   -0.0109 C.3       1 <0>        -0.1489
      2 C2          0.0708    0.0228   -0.0091 C.2       1 <0>         0.4568
      3 O1          0.0899   -0.5802    1.0378 O.2       1 <0>        -0.5126
      4 O2          0.0457   -0.6497   -1.1705 O.3       1 <0>        -0.3366
      5 C3          0.0430   -2.0747   -1.0942 C.3       1 <0>         0.0871
      6 H1          0.5552   -2.4231   -0.2018 H         1 <0>         0.0908
      7 C4         -1.4038   -2.6344   -1.1631 C.3       1 <0>        -0.1391
      8 C5         -1.3376   -3.8968   -2.0707 C.3       1 <0>        -0.1208
      9 C6          0.1553   -4.1153   -2.2797 C.3       1 <0>        -0.0806
     10 C7          0.7050   -2.6773   -2.3567 C.3       1 <0>        -0.0516
     11 C8          2.2179   -2.7004   -2.3070 C.3       1 <0>        -0.1060
     12 C9          2.7448   -3.6161   -3.4177 C.3       1 <0>        -0.1093
     13 C10         2.1975   -5.0322   -3.2604 C.3       1 <0>        -0.0460
     14 C11         0.6628   -5.0363   -3.3397 C.3       1 <0>        -0.0328
     15 C12         0.2184   -4.7797   -4.7693 C.3       1 <0>        -0.1222
     16 H2          0.6473   -3.8614   -5.1662 H         1 <0>         0.1310
     17 C13         0.7316   -5.9410   -5.6153 C.2       1 <0>         0.3902
     18 O3          0.0091   -6.4855   -6.4196 O.2       1 <0>        -0.4108
     19 C14         2.1276   -6.3660   -5.4125 C.ar      1 <0>        -0.1434
     20 C15         2.8259   -5.9315   -4.2851 C.ar      1 <0>        -0.0344
     21 C16         4.1366   -6.3393   -4.1056 C.ar      1 <0>        -0.1105
     22 C17         4.7481   -7.1639   -5.0309 C.ar      1 <0>        -0.1074
     23 C18         4.0557   -7.5984   -6.1532 C.ar      1 <0>         0.0958
     24 C19         2.7436   -7.2020   -6.3469 C.ar      1 <0>        -0.0847
     25 O4          4.6639   -8.4093   -7.0582 O.3       1 <0>        -0.4943
     26 S1         -1.5892   -4.7415   -4.9195 S.3       1 <0>        -0.0417
     27 C20        -1.8679   -4.2902   -6.5997 C.ar      1 <0>        -0.0703
     28 C21        -0.7906   -4.0667   -7.4486 C.ar      1 <0>        -0.1154
     29 C22        -1.0123   -3.7136   -8.7649 C.ar      1 <0>        -0.0697
     30 C23        -2.3057   -3.5822   -9.2391 C.ar      1 <0>        -0.0968
     31 C24        -3.3806   -3.8040   -8.3964 C.ar      1 <0>        -0.0706
     32 C25        -3.1655   -4.1625   -7.0804 C.ar      1 <0>        -0.0956
     33 Br1        -2.6048   -3.0978  -11.0424 Br        1 <0>        -0.0483
     34 C26         0.2060   -1.9035   -3.5762 C.3       1 <0>        -0.1407
     35 H3          1.1037    1.8901   -0.0318 H         1 <0>         0.1046
     36 H4         -0.4552    1.8936   -0.8908 H         1 <0>         0.0943
     37 H5         -0.4197    1.8956    0.8888 H         1 <0>         0.1025
     38 H6         -1.7483   -2.9128   -0.1683 H         1 <0>         0.0718
     39 H7         -2.0742   -1.8991   -1.6033 H         1 <0>         0.0788
     40 H8         -1.7764   -4.7468   -1.5493 H         1 <0>         0.0719
     41 H9         -1.8656   -3.6935   -2.9910 H         1 <0>         0.0967
     42 H10         0.5273   -4.5371   -1.3073 H         1 <0>         0.0779
     43 H11         2.6071   -1.6883   -2.4499 H         1 <0>         0.0741
     44 H12         2.5506   -3.0729   -1.3342 H         1 <0>         0.0680
     45 H13         2.4666   -3.2248   -4.3917 H         1 <0>         0.0682
     46 H14         3.8349   -3.6542   -3.3555 H         1 <0>         0.0732
     47 H15         2.4800   -5.3949   -2.2665 H         1 <0>         0.0981
     48 H16         0.3388   -6.0658   -3.0738 H         1 <0>         0.0861
     49 H17         4.6848   -6.0076   -3.2362 H         1 <0>         0.1367
     50 H18         5.7727   -7.4725   -4.8800 H         1 <0>         0.1369
     51 H19         2.1995   -7.5377   -7.2177 H         1 <0>         0.1406
     52 H20         4.5600   -9.3527   -6.8731 H         1 <0>         0.3948
     53 H21         0.2191   -4.1688   -7.0790 H         1 <0>         0.1174
     54 H22        -0.1755   -3.5395   -9.4251 H         1 <0>         0.1335
     55 H23        -4.3888   -3.7006   -8.7695 H         1 <0>         0.1381
     56 H24        -4.0049   -4.3399   -6.4243 H         1 <0>         0.1365
     57 H25         0.3808   -0.8381   -3.4270 H         1 <0>         0.0697
     58 H26         0.7424   -2.2390   -4.4638 H         1 <0>         0.0507
     59 H27        -0.8613   -2.0817   -3.7078 H         1 <0>         0.0686
@<TRIPOS>BOND
     1    1    2 1
     2    1   35 1
     3    1   36 1
     4    1   37 1
     5    2    3 2
     6    2    4 1
     7    4    5 1
     8    5    6 1
     9    5   10 1
    10    5    7 1
    11    7    8 1
    12    7   38 1
    13    7   39 1
    14    8    9 1
    15    8   40 1
    16    8   41 1
    17    9   14 1
    18    9   10 1
    19    9   42 1
    20   10   11 1
    21   10   34 1
    22   11   12 1
    23   11   43 1
    24   11   44 1
    25   12   13 1
    26   12   45 1
    27   12   46 1
    28   13   20 1
    29   13   14 1
    30   13   47 1
    31   14   15 1
    32   14   48 1
    33   15   16 1
    34   15   17 1
    35   15   26 1
    36   17   18 2
    37   17   19 1
    38   19   24 ar
    39   19   20 ar
    40   20   21 ar
    41   21   22 ar
    42   21   49 1
    43   22   23 ar
    44   22   50 1
    45   23   24 ar
    46   23   25 1
    47   24   51 1
    48   25   52 1
    49   26   27 1
    50   27   32 ar
    51   27   28 ar
    52   28   29 ar
    53   28   53 1
    54   29   30 ar
    55   29   54 1
    56   30   31 ar
    57   30   33 1
    58   31   32 ar
    59   31   55 1
    60   32   56 1
    61   34   57 1
    62   34   58 1
    63   34   59 1
@<TRIPOS>MOLECULE
CHEMBL36037__3
   59    63     0     0     0
SMALL
USER_CHARGES

@<TRIPOS>ATOM
      1 C1         -0.0184    1.5028    0.0103 C.3       1 <0>        -0.1487
      2 C2          0.0021   -0.0041    0.0020 C.2       1 <0>         0.4562
      3 O1          0.0203   -0.6138    1.0450 O.2       1 <0>        -0.5116
      4 O2          0.0001   -0.6689   -1.1641 O.3       1 <0>        -0.3393
      5 C3          0.0201   -2.0962   -1.0971 C.3       1 <0>         0.0952
      6 H1          0.5337   -2.4242   -0.1934 H         1 <0>         0.0894
      7 C4         -1.4243   -2.6554   -1.1268 C.3       1 <0>        -0.1367
      8 C5         -1.4973   -3.6155   -2.3454 C.3       1 <0>        -0.1156
      9 C6         -0.0344   -4.0252   -2.5480 C.3       1 <0>        -0.0855
     10 C7          0.7031   -2.6734   -2.3319 C.3       1 <0>        -0.0598
     11 C8          2.1848   -2.9680   -2.2160 C.3       1 <0>        -0.1057
     12 C9          2.6484   -3.5427   -3.5668 C.3       1 <0>        -0.1129
     13 C10         1.8459   -4.7832   -3.9375 C.3       1 <0>        -0.0544
     14 C11         0.3335   -4.5044   -3.9384 C.3       1 <0>        -0.0494
     15 C12        -0.4118   -5.7962   -4.2876 C.3       1 <0>        -0.1282
     16 H2         -1.4876   -5.6326   -4.2249 H         1 <0>         0.1266
     17 C13        -0.0278   -6.1657   -5.7064 C.2       1 <0>         0.4074
     18 O3         -0.8546   -6.5825   -6.4893 O.2       1 <0>        -0.4300
     19 C14         1.3838   -6.0021   -6.1058 C.ar      1 <0>        -0.1458
     20 C15         2.2878   -5.3358   -5.2616 C.ar      1 <0>        -0.0264
     21 C16         3.6044   -5.1839   -5.6550 C.ar      1 <0>        -0.1150
     22 C17         4.0362   -5.6885   -6.8671 C.ar      1 <0>        -0.1047
     23 C18         3.1529   -6.3562   -7.7050 C.ar      1 <0>         0.0909
     24 C19         1.8195   -6.5146   -7.3301 C.ar      1 <0>        -0.0803
     25 O4          3.5856   -6.8528   -8.8939 O.3       1 <0>        -0.4947
     26 S1          0.0788   -7.1197   -3.1482 S.3       1 <0>        -0.0430
     27 C20        -0.9645   -8.4697   -3.5884 C.ar      1 <0>        -0.0925
     28 C21        -1.8855   -8.3305   -4.6196 C.ar      1 <0>        -0.1315
     29 C22        -2.7013   -9.3904   -4.9626 C.ar      1 <0>        -0.0679
     30 C23        -2.6024  -10.5904   -4.2805 C.ar      1 <0>        -0.0933
     31 C24        -1.6863  -10.7323   -3.2532 C.ar      1 <0>        -0.0747
     32 C25        -0.8640   -9.6778   -2.9090 C.ar      1 <0>        -0.0918
     33 Br1        -3.7220  -12.0392   -4.7530 Br        1 <0>        -0.0459
     34 C26         0.4584   -1.7565   -3.5320 C.3       1 <0>        -0.1456
     35 H3          1.0042    1.8801    0.0026 H         1 <0>         0.1047
     36 H4         -0.5455    1.8639   -0.8728 H         1 <0>         0.0939
     37 H5         -0.5286    1.8543    0.9071 H         1 <0>         0.1024
     38 H6         -1.6329   -3.2018   -0.2070 H         1 <0>         0.0773
     39 H7         -2.1384   -1.8409   -1.2488 H         1 <0>         0.0756
     40 H8         -2.1129   -4.4850   -2.1150 H         1 <0>         0.0744
     41 H9         -1.8771   -3.0947   -3.2244 H         1 <0>         0.0748
     42 H10         0.2619   -4.7617   -1.8011 H         1 <0>         0.0952
     43 H11         2.7291   -2.0490   -1.9982 H         1 <0>         0.0731
     44 H12         2.3566   -3.6975   -1.4247 H         1 <0>         0.0707
     45 H13         2.5171   -2.7869   -4.3412 H         1 <0>         0.0773
     46 H14         3.7040   -3.8060   -3.5003 H         1 <0>         0.0758
     47 H15         2.0334   -5.5427   -3.1785 H         1 <0>         0.0978
     48 H16         0.1032   -3.7273   -4.6672 H         1 <0>         0.1072
     49 H17         4.3004   -4.6670   -5.0109 H         1 <0>         0.1392
     50 H18         5.0669   -5.5630   -7.1641 H         1 <0>         0.1365
     51 H19         1.1276   -7.0326   -7.9777 H         1 <0>         0.1406
     52 H20         3.9151   -7.7606   -8.8445 H         1 <0>         0.3937
     53 H21        -1.9634   -7.3941   -5.1521 H         1 <0>         0.1503
     54 H22        -3.4176   -9.2827   -5.7637 H         1 <0>         0.1365
     55 H23        -1.6115  -11.6701   -2.7228 H         1 <0>         0.1392
     56 H24        -0.1461   -9.7905   -2.1101 H         1 <0>         0.1371
     57 H25         0.8887   -0.7750   -3.3331 H         1 <0>         0.0670
     58 H26         0.9261   -2.1854   -4.4182 H         1 <0>         0.0644
     59 H27        -0.6139   -1.6559   -3.6998 H         1 <0>         0.0604
@<TRIPOS>BOND
     1    1    2 1
     2    1   35 1
     3    1   36 1
     4    1   37 1
     5    2    3 2
     6    2    4 1
     7    4    5 1
     8    5    6 1
     9    5   10 1
    10    5    7 1
    11    7    8 1
    12    7   38 1
    13    7   39 1
    14    8    9 1
    15    8   40 1
    16    8   41 1
    17    9   14 1
    18    9   10 1
    19    9   42 1
    20   10   11 1
    21   10   34 1
    22   11   12 1
    23   11   43 1
    24   11   44 1
    25   12   13 1
    26   12   45 1
    27   12   46 1
    28   13   20 1
    29   13   14 1
    30   13   47 1
    31   14   15 1
    32   14   48 1
    33   15   16 1
    34   15   17 1
    35   15   26 1
    36   17   18 2
    37   17   19 1
    38   19   24 ar
    39   19   20 ar
    40   20   21 ar
    41   21   22 ar
    42   21   49 1
    43   22   23 ar
    44   22   50 1
    45   23   24 ar
    46   23   25 1
    47   24   51 1
    48   25   52 1
    49   26   27 1
    50   27   32 ar
    51   27   28 ar
    52   28   29 ar
    53   28   53 1
    54   29   30 ar
    55   29   54 1
    56   30   31 ar
    57   30   33 1
    58   31   32 ar
    59   31   55 1
    60   32   56 1
    61   34   57 1
    62   34   58 1
    63   34   59 1
@<TRIPOS>MOLECULE
CHEMBL36037__4
   59    63     0     0     0
SMALL
USER_CHARGES

@<TRIPOS>ATOM
      1 C1         -0.0184    1.5028    0.0103 C.3       1 <0>        -0.1487
      2 C2          0.0021   -0.0041    0.0020 C.2       1 <0>         0.4565
      3 O1          0.0203   -0.6138    1.0450 O.2       1 <0>        -0.5110
      4 O2          0.0001   -0.6689   -1.1641 O.3       1 <0>        -0.3378
      5 C3          0.0201   -2.0962   -1.0971 C.3       1 <0>         0.0882
      6 H1          0.5328   -2.4298   -0.1949 H         1 <0>         0.0921
      7 C4         -1.4170   -2.6639   -1.1483 C.3       1 <0>        -0.1433
      8 C5         -1.3546   -3.9420   -2.0051 C.3       1 <0>        -0.1057
      9 C6          0.1325   -4.1245   -2.4093 C.3       1 <0>        -0.0738
     10 C7          0.6890   -2.6885   -2.3513 C.3       1 <0>        -0.0485
     11 C8          2.1958   -2.6214   -2.2916 C.3       1 <0>        -0.1088
     12 C9          2.7562   -3.4985   -1.1713 C.3       1 <0>        -0.1161
     13 C10         2.2997   -4.9393   -1.4235 C.3       1 <0>        -0.0446
     14 C11         0.7801   -4.9910   -1.3270 C.3       1 <0>        -0.0551
     15 C12         0.3028   -6.4403   -1.4716 C.3       1 <0>        -0.1335
     16 H2          0.6699   -6.8595   -2.4084 H         1 <0>         0.1323
     17 C13         0.8660   -7.2214   -0.3021 C.2       1 <0>         0.3966
     18 O3          0.1903   -8.0346    0.2915 O.2       1 <0>        -0.4138
     19 C14         2.2647   -6.9602    0.0907 C.ar      1 <0>        -0.1447
     20 C15         2.9490   -5.8660   -0.4351 C.ar      1 <0>        -0.0342
     21 C16         4.2546   -5.6305   -0.0451 C.ar      1 <0>        -0.1133
     22 C17         4.8786   -6.4707    0.8573 C.ar      1 <0>        -0.1070
     23 C18         4.2026   -7.5631    1.3843 C.ar      1 <0>         0.0945
     24 C19         2.8990   -7.8109    0.9990 C.ar      1 <0>        -0.0845
     25 O4          4.8243   -8.3873    2.2683 O.3       1 <0>        -0.4943
     26 S1         -1.5099   -6.4987   -1.4387 S.3       1 <0>        -0.0234
     27 C20        -1.8879   -8.1892   -1.7612 C.ar      1 <0>        -0.1038
     28 C21        -0.8628   -9.1061   -1.9602 C.ar      1 <0>        -0.1099
     29 C22        -1.1623  -10.4303   -2.2122 C.ar      1 <0>        -0.0736
     30 C23        -2.4815  -10.8446   -2.2667 C.ar      1 <0>        -0.0980
     31 C24        -3.5045   -9.9340   -2.0689 C.ar      1 <0>        -0.0745
     32 C25        -3.2115   -8.6094   -1.8112 C.ar      1 <0>        -0.0969
     33 Br1        -2.8871  -12.6589   -2.6127 Br        1 <0>        -0.0517
     34 C26         0.2135   -1.9180   -3.5846 C.3       1 <0>        -0.1391
     35 H3          1.0042    1.8801    0.0026 H         1 <0>         0.1050
     36 H4         -0.5455    1.8639   -0.8728 H         1 <0>         0.0946
     37 H5         -0.5286    1.8543    0.9071 H         1 <0>         0.1027
     38 H6         -1.7591   -2.9053   -0.1419 H         1 <0>         0.0737
     39 H7         -2.0888   -1.9388   -1.6076 H         1 <0>         0.0814
     40 H8         -1.6923   -4.7996   -1.4232 H         1 <0>         0.0823
     41 H9         -1.9729   -3.8264   -2.8953 H         1 <0>         0.0858
     42 H10         0.2350   -4.5693   -3.3991 H         1 <0>         0.1037
     43 H11         2.6048   -2.9573   -3.2445 H         1 <0>         0.0752
     44 H12         2.4992   -1.5886   -2.1202 H         1 <0>         0.0726
     45 H13         3.8451   -3.4510   -1.1761 H         1 <0>         0.0803
     46 H14         2.3761   -3.1548   -0.2093 H         1 <0>         0.0703
     47 H15         2.5923   -5.2333   -2.4315 H         1 <0>         0.1002
     48 H16         0.4776   -4.6214   -0.3472 H         1 <0>         0.0887
     49 H17         4.7905   -4.7843   -0.4489 H         1 <0>         0.1392
     50 H18         5.8986   -6.2766    1.1544 H         1 <0>         0.1365
     51 H19         2.3696   -8.6585    1.4085 H         1 <0>         0.1399
     52 H20         4.7167   -8.1253    3.1929 H         1 <0>         0.3945
     53 H21         0.1669   -8.7833   -1.9182 H         1 <0>         0.1169
     54 H22        -0.3661  -11.1433   -2.3674 H         1 <0>         0.1313
     55 H23        -4.5330  -10.2605   -2.1120 H         1 <0>         0.1355
     56 H24        -4.0103   -7.9001   -1.6525 H         1 <0>         0.1330
     57 H25         0.5100   -0.8728   -3.4967 H         1 <0>         0.0669
     58 H26         0.6638   -2.3495   -4.4786 H         1 <0>         0.0583
     59 H27        -0.8722   -1.9828   -3.6573 H         1 <0>         0.0607
@<TRIPOS>BOND
     1    1    2 1
     2    1   35 1
     3    1   36 1
     4    1   37 1
     5    2    3 2
     6    2    4 1
     7    4    5 1
     8    5    6 1
     9    5   10 1
    10    5    7 1
    11    7    8 1
    12    7   38 1
    13    7   39 1
    14    8    9 1
    15    8   40 1
    16    8   41 1
    17    9   14 1
    18    9   10 1
    19    9   42 1
    20   10   11 1
    21   10   34 1
    22   11   12 1
    23   11   43 1
    24   11   44 1
    25   12   13 1
    26   12   45 1
    27   12   46 1
    28   13   20 1
    29   13   14 1
    30   13   47 1
    31   14   15 1
    32   14   48 1
    33   15   16 1
    34   15   17 1
    35   15   26 1
    36   17   18 2
    37   17   19 1
    38   19   24 ar
    39   19   20 ar
    40   20   21 ar
    41   21   22 ar
    42   21   49 1
    43   22   23 ar
    44   22   50 1
    45   23   24 ar
    46   23   25 1
    47   24   51 1
    48   25   52 1
    49   26   27 1
    50   27   32 ar
    51   27   28 ar
    52   28   29 ar
    53   28   53 1
    54   29   30 ar
    55   29   54 1
    56   30   31 ar
    57   30   33 1
    58   31   32 ar
    59   31   55 1
    60   32   56 1
    61   34   57 1
    62   34   58 1
    63   34   59 1
@<TRIPOS>MOLECULE
CHEMBL36037__5
   59    63     0     0     0
SMALL
USER_CHARGES

@<TRIPOS>ATOM
      1 C1         -0.0184    1.5028    0.0103 C.3       1 <0>        -0.1493
      2 C2          0.0021   -0.0041    0.0020 C.2       1 <0>         0.4529
      3 O1          0.0203   -0.6138    1.0450 O.2       1 <0>        -0.5067
      4 O2          0.0001   -0.6689   -1.1641 O.3       1 <0>        -0.3449
      5 C3          0.0202   -2.1016   -1.0969 C.3       1 <0>         0.0954
      6 H1          0.5344   -2.4102   -0.1925 H         1 <0>         0.1060
      7 C4         -1.4254   -2.6376   -1.1303 C.3       1 <0>        -0.1441
      8 C5         -1.5507   -3.4982   -2.4075 C.3       1 <0>        -0.1213
      9 C6         -0.0956   -3.9083   -2.7455 C.3       1 <0>        -0.0665
     10 C7          0.7096   -2.6660   -2.3420 C.3       1 <0>        -0.0537
     11 C8          2.1864   -2.9256   -2.1765 C.3       1 <0>        -0.1056
     12 C9          2.4638   -4.1476   -1.3004 C.3       1 <0>        -0.1147
     13 C10         1.7968   -5.3694   -1.9259 C.3       1 <0>        -0.0445
     14 C11         0.2969   -5.1821   -2.0437 C.3       1 <0>        -0.0485
     15 C12        -0.4526   -5.5102   -0.7669 C.3       1 <0>        -0.1292
     16 H2         -1.5263   -5.3627   -0.8868 H         1 <0>         0.1275
     17 C13        -0.1935   -6.9913   -0.5022 C.2       1 <0>         0.4067
     18 O3         -1.0937   -7.7651   -0.2967 O.2       1 <0>        -0.4228
     19 C14         1.2249   -7.4021   -0.5120 C.ar      1 <0>        -0.1414
     20 C15         2.1694   -6.6221   -1.1824 C.ar      1 <0>        -0.0284
     21 C16         3.4966   -7.0191   -1.1753 C.ar      1 <0>        -0.1102
     22 C17         3.8814   -8.1731   -0.5201 C.ar      1 <0>        -0.1084
     23 C18         2.9426   -8.9525    0.1432 C.ar      1 <0>         0.0957
     24 C19         1.6125   -8.5691    0.1495 C.ar      1 <0>        -0.0865
     25 O4          3.3283  -10.0881    0.7818 O.3       1 <0>        -0.4946
     26 S1          0.1436   -4.5686    0.6614 S.3       1 <0>        -0.0256
     27 C20        -0.9645   -5.0126    1.9574 C.ar      1 <0>        -0.0996
     28 C21        -1.9954   -5.9123    1.7143 C.ar      1 <0>        -0.1339
     29 C22        -2.8618   -6.2586    2.7322 C.ar      1 <0>        -0.0679
     30 C23        -2.7044   -5.7108    3.9931 C.ar      1 <0>        -0.0947
     31 C24        -1.6789   -4.8147    4.2384 C.ar      1 <0>        -0.0730
     32 C25        -0.8059   -4.4684    3.2261 C.ar      1 <0>        -0.0882
     33 Br1        -3.8936   -6.1874    5.3840 Br        1 <0>        -0.0472
     34 C26         0.5560   -1.6232   -3.4688 C.3       1 <0>        -0.1382
     35 H3          1.0042    1.8801    0.0026 H         1 <0>         0.1034
     36 H4         -0.5455    1.8639   -0.8728 H         1 <0>         0.0927
     37 H5         -0.5286    1.8543    0.9071 H         1 <0>         0.1012
     38 H6         -1.6462   -3.2270   -0.2471 H         1 <0>         0.0828
     39 H7         -2.1245   -1.7972   -1.1892 H         1 <0>         0.0698
     40 H8         -2.1766   -4.3717   -2.2236 H         1 <0>         0.0695
     41 H9         -1.9881   -2.9079   -3.2179 H         1 <0>         0.0773
     42 H10        -0.0011   -4.0527   -3.8484 H         1 <0>         0.0947
     43 H11         2.6353   -3.0850   -3.1582 H         1 <0>         0.0749
     44 H12         2.6533   -2.0514   -1.7176 H         1 <0>         0.0696
     45 H13         3.5508   -4.3103   -1.2705 H         1 <0>         0.0745
     46 H14         2.1240   -3.9697   -0.2898 H         1 <0>         0.0798
     47 H15         2.1959   -5.4732   -2.9562 H         1 <0>         0.0982
     48 H16        -0.0145   -5.9974   -2.7584 H         1 <0>         0.0818
     49 H17         4.2345   -6.4221   -1.6906 H         1 <0>         0.1362
     50 H18         4.9190   -8.4730   -0.5257 H         1 <0>         0.1361
     51 H19         0.8790   -9.1707    0.6659 H         1 <0>         0.1376
     52 H20         3.5782   -9.9539    1.7063 H         1 <0>         0.3937
     53 H21        -2.1189   -6.3399    0.7303 H         1 <0>         0.1413
     54 H22        -3.6634   -6.9575    2.5439 H         1 <0>         0.1356
     55 H23        -1.5587   -4.3889    5.2236 H         1 <0>         0.1385
     56 H24        -0.0030   -3.7723    3.4193 H         1 <0>         0.1372
     57 H25         1.0476   -0.6958   -3.1750 H         1 <0>         0.0657
     58 H26         1.0145   -2.0041   -4.3813 H         1 <0>         0.0542
     59 H27        -0.5025   -1.4330   -3.6460 H         1 <0>         0.0596
@<TRIPOS>BOND
     1    1    2 1
     2    1   35 1
     3    1   36 1
     4    1   37 1
     5    2    3 2
     6    2    4 1
     7    4    5 1
     8    5    6 1
     9    5   10 1
    10    5    7 1
    11    7    8 1
    12    7   38 1
    13    7   39 1
    14    8    9 1
    15    8   40 1
    16    8   41 1
    17    9   14 1
    18    9   10 1
    19    9   42 1
    20   10   11 1
    21   10   34 1
    22   11   12 1
    23   11   43 1
    24   11   44 1
    25   12   13 1
    26   12   45 1
    27   12   46 1
    28   13   20 1
    29   13   14 1
    30   13   47 1
    31   14   15 1
    32   14   48 1
    33   15   16 1
    34   15   17 1
    35   15   26 1
    36   17   18 2
    37   17   19 1
    38   19   24 ar
    39   19   20 ar
    40   20   21 ar
    41   21   22 ar
    42   21   49 1
    43   22   23 ar
    44   22   50 1
    45   23   24 ar
    46   23   25 1
    47   24   51 1
    48   25   52 1
    49   26   27 1
    50   27   32 ar
    51   27   28 ar
    52   28   29 ar
    53   28   53 1
    54   29   30 ar
    55   29   54 1
    56   30   31 ar
    57   30   33 1
    58   31   32 ar
    59   31   55 1
    60   32   56 1
    61   34   57 1
    62   34   58 1
    63   34   59 1
@<TRIPOS>MOLECULE
CHEMBL36037__6
   59    63     0     0     0
SMALL
USER_CHARGES

@<TRIPOS>ATOM
      1 C1          0.1868    1.4132    0.2143 C.3       1 <0>        -0.1491
      2 C2          0.1679   -0.0919    0.1414 C.2       1 <0>         0.4569
      3 O1          0.2128   -0.7465    1.1560 O.2       1 <0>        -0.5136
      4 O2          0.1012   -0.7053   -1.0507 O.3       1 <0>        -0.3384
      5 C3          0.0871   -2.1342   -1.0451 C.3       1 <0>         0.0870
      6 H1          0.6290   -2.5103   -0.1774 H         1 <0>         0.0885
      7 C4         -1.3644   -2.6488   -1.0260 C.3       1 <0>        -0.1396
      8 C5         -1.5671   -3.4469   -2.3346 C.3       1 <0>        -0.1154
      9 C6         -0.4898   -2.8749   -3.2748 C.3       1 <0>        -0.0813
     10 C7          0.7267   -2.6786   -2.3500 C.3       1 <0>        -0.0468
     11 C8          1.3588   -4.0282   -1.9998 C.3       1 <0>        -0.1115
     12 C9          1.7105   -4.8043   -3.2660 C.3       1 <0>        -0.1109
     13 C10         0.4185   -5.0953   -4.0382 C.3       1 <0>        -0.0446
     14 C11        -0.2124   -3.7717   -4.4549 C.3       1 <0>        -0.0415
     15 C12         0.6938   -3.0658   -5.4700 C.3       1 <0>        -0.1374
     16 H2          1.6924   -2.9411   -5.0513 H         1 <0>         0.1378
     17 C13         0.7588   -3.9411   -6.7047 C.2       1 <0>         0.3955
     18 O3          0.6956   -3.4628   -7.8171 O.2       1 <0>        -0.4152
     19 C14         0.9014   -5.3968   -6.5060 C.ar      1 <0>        -0.1440
     20 C15         0.7387   -5.9506   -5.2343 C.ar      1 <0>        -0.0349
     21 C16         0.8697   -7.3172   -5.0673 C.ar      1 <0>        -0.1102
     22 C17         1.1673   -8.1291   -6.1453 C.ar      1 <0>        -0.1073
     23 C18         1.3391   -7.5833   -7.4104 C.ar      1 <0>         0.0948
     24 C19         1.2034   -6.2170   -7.5957 C.ar      1 <0>        -0.0844
     25 O4          1.6332   -8.3880   -8.4654 O.3       1 <0>        -0.4947
     26 S1         -0.0025   -1.4460   -5.8963 S.3       1 <0>        -0.0488
     27 C20         1.2173   -0.7188   -6.9394 C.ar      1 <0>        -0.0663
     28 C21         2.3800   -1.4169   -7.2425 C.ar      1 <0>        -0.1111
     29 C22         3.3338   -0.8445   -8.0607 C.ar      1 <0>        -0.0705
     30 C23         3.1327    0.4229   -8.5786 C.ar      1 <0>        -0.0959
     31 C24         1.9760    1.1206   -8.2787 C.ar      1 <0>        -0.0713
     32 C25         1.0160    0.5516   -7.4654 C.ar      1 <0>        -0.0951
     33 Br1         4.4418    1.2032   -9.6981 Br        1 <0>        -0.0482
     34 C26         1.7428   -1.6999   -2.9421 C.3       1 <0>        -0.1358
     35 H3          1.2176    1.7657    0.1798 H         1 <0>         0.1047
     36 H4         -0.3665    1.8248   -0.6299 H         1 <0>         0.0947
     37 H5         -0.2772    1.7377    1.1457 H         1 <0>         0.1021
     38 H6         -1.5189   -3.2985   -0.1646 H         1 <0>         0.0770
     39 H7         -2.0580   -1.8087   -0.9898 H         1 <0>         0.0763
     40 H8         -1.4025   -4.5109   -2.1646 H         1 <0>         0.0741
     41 H9         -2.5633   -3.2716   -2.7407 H         1 <0>         0.0751
     42 H10        -0.8122   -1.8980   -3.6350 H         1 <0>         0.0966
     43 H11         2.2654   -3.8599   -1.4185 H         1 <0>         0.0719
     44 H12         0.6550   -4.6109   -1.4055 H         1 <0>         0.0735
     45 H13         2.3807   -4.2085   -3.8858 H         1 <0>         0.0675
     46 H14         2.1950   -5.7428   -2.9970 H         1 <0>         0.0774
     47 H15        -0.2773   -5.6276   -3.3897 H         1 <0>         0.1033
     48 H16        -1.1595   -3.9852   -4.9505 H         1 <0>         0.0869
     49 H17         0.7383   -7.7530   -4.0879 H         1 <0>         0.1369
     50 H18         1.2665   -9.1951   -6.0029 H         1 <0>         0.1367
     51 H19         1.3351   -5.7873   -8.5777 H         1 <0>         0.1407
     52 H20         0.8560   -8.7242   -8.9324 H         1 <0>         0.3945
     53 H21         2.5377   -2.4059   -6.8383 H         1 <0>         0.1181
     54 H22         4.2378   -1.3863   -8.2963 H         1 <0>         0.1337
     55 H23         1.8220    2.1095   -8.6844 H         1 <0>         0.1383
     56 H24         0.1113    1.0948   -7.2353 H         1 <0>         0.1368
     57 H25         2.4537   -1.4034   -2.1708 H         1 <0>         0.0566
     58 H26         2.2760   -2.1814   -3.7619 H         1 <0>         0.0529
     59 H27         1.2227   -0.8178   -3.3154 H         1 <0>         0.0770
@<TRIPOS>BOND
     1    1    2 1
     2    1   35 1
     3    1   36 1
     4    1   37 1
     5    2    3 2
     6    2    4 1
     7    4    5 1
     8    5    6 1
     9    5   10 1
    10    5    7 1
    11    7    8 1
    12    7   38 1
    13    7   39 1
    14    8    9 1
    15    8   40 1
    16    8   41 1
    17    9   14 1
    18    9   10 1
    19    9   42 1
    20   10   11 1
    21   10   34 1
    22   11   12 1
    23   11   43 1
    24   11   44 1
    25   12   13 1
    26   12   45 1
    27   12   46 1
    28   13   20 1
    29   13   14 1
    30   13   47 1
    31   14   15 1
    32   14   48 1
    33   15   16 1
    34   15   17 1
    35   15   26 1
    36   17   18 2
    37   17   19 1
    38   19   24 ar
    39   19   20 ar
    40   20   21 ar
    41   21   22 ar
    42   21   49 1
    43   22   23 ar
    44   22   50 1
    45   23   24 ar
    46   23   25 1
    47   24   51 1
    48   25   52 1
    49   26   27 1
    50   27   32 ar
    51   27   28 ar
    52   28   29 ar
    53   28   53 1
    54   29   30 ar
    55   29   54 1
    56   30   31 ar
    57   30   33 1
    58   31   32 ar
    59   31   55 1
    60   32   56 1
    61   34   57 1
    62   34   58 1
    63   34   59 1
@<TRIPOS>MOLECULE
CHEMBL36037__7
   59    63     0     0     0
SMALL
USER_CHARGES

@<TRIPOS>ATOM
      1 C1         -0.0184    1.5028    0.0103 C.3       1 <0>        -0.1488
      2 C2          0.0021   -0.0041    0.0020 C.2       1 <0>         0.4568
      3 O1          0.0203   -0.6138    1.0450 O.2       1 <0>        -0.5125
      4 O2          0.0001   -0.6689   -1.1641 O.3       1 <0>        -0.3411
      5 C3          0.0201   -2.0962   -1.0971 C.3       1 <0>         0.0854
      6 H1          0.5342   -2.4210   -0.1925 H         1 <0>         0.0883
      7 C4         -1.4180   -2.6467   -1.1147 C.3       1 <0>        -0.1384
      8 C5         -1.5469   -3.5038   -2.3950 C.3       1 <0>        -0.1238
      9 C6         -0.4462   -2.9430   -3.3144 C.3       1 <0>        -0.0764
     10 C7          0.7270   -2.6786   -2.3501 C.3       1 <0>        -0.0451
     11 C8          1.3835   -3.9899   -1.9139 C.3       1 <0>        -0.1120
     12 C9          1.7882   -4.8313   -3.1225 C.3       1 <0>        -0.1095
     13 C10         0.5227   -5.1793   -3.9111 C.3       1 <0>        -0.0553
     14 C11        -0.0905   -3.8855   -4.4370 C.3       1 <0>        -0.0455
     15 C12        -1.3170   -4.2100   -5.2960 C.3       1 <0>        -0.1293
     16 H2         -1.7915   -3.2868   -5.6288 H         1 <0>         0.1262
     17 C13        -0.8312   -5.0008   -6.4938 C.2       1 <0>         0.4072
     18 O3         -1.2686   -4.7867   -7.6042 O.2       1 <0>        -0.4293
     19 C14         0.1922   -6.0400   -6.2656 C.ar      1 <0>        -0.1453
     20 C15         0.8488   -6.1251   -5.0318 C.ar      1 <0>        -0.0256
     21 C16         1.8113   -7.0986   -4.8384 C.ar      1 <0>        -0.1139
     22 C17         2.1253   -7.9842   -5.8518 C.ar      1 <0>        -0.1052
     23 C18         1.4776   -7.9083   -7.0777 C.ar      1 <0>         0.0920
     24 C19         0.5069   -6.9372   -7.2889 C.ar      1 <0>        -0.0821
     25 O4          1.7896   -8.7848   -8.0685 O.3       1 <0>        -0.4946
     26 S1         -2.4973   -5.1998   -4.3380 S.3       1 <0>        -0.0325
     27 C20        -3.8897   -5.3548   -5.4065 C.ar      1 <0>        -0.1008
     28 C21        -3.8682   -4.7710   -6.6674 C.ar      1 <0>        -0.1324
     29 C22        -4.9609   -4.8947   -7.5026 C.ar      1 <0>        -0.0681
     30 C23        -6.0764   -5.5991   -7.0852 C.ar      1 <0>        -0.0943
     31 C24        -6.1010   -6.1816   -5.8302 C.ar      1 <0>        -0.0749
     32 C25        -5.0095   -6.0660   -4.9923 C.ar      1 <0>        -0.0927
     33 Br1        -7.5708   -5.7655   -8.2319 Br        1 <0>        -0.0469
     34 C26         1.7350   -1.6919   -2.9428 C.3       1 <0>        -0.1336
     35 H3          1.0042    1.8801    0.0026 H         1 <0>         0.1046
     36 H4         -0.5455    1.8639   -0.8728 H         1 <0>         0.0939
     37 H5         -0.5286    1.8543    0.9071 H         1 <0>         0.1023
     38 H6         -1.5925   -3.2637   -0.2332 H         1 <0>         0.0761
     39 H7         -2.1325   -1.8240   -1.1425 H         1 <0>         0.0752
     40 H8         -1.3633   -4.5551   -2.1734 H         1 <0>         0.0764
     41 H9         -2.5295   -3.3718   -2.8480 H         1 <0>         0.0920
     42 H10        -0.7771   -1.9926   -3.7330 H         1 <0>         0.0866
     43 H11         2.2703   -3.7659   -1.3211 H         1 <0>         0.0718
     44 H12         0.6801   -4.5562   -1.3035 H         1 <0>         0.0718
     45 H13         2.4702   -4.2624   -3.7545 H         1 <0>         0.0745
     46 H14         2.2751   -5.7468   -2.7865 H         1 <0>         0.0784
     47 H15        -0.1976   -5.6507   -3.2425 H         1 <0>         0.1033
     48 H16         0.6439   -3.3956   -5.0762 H         1 <0>         0.0940
     49 H17         2.3215   -7.1672   -3.8890 H         1 <0>         0.1391
     50 H18         2.8794   -8.7401   -5.6893 H         1 <0>         0.1364
     51 H19         0.0001   -6.8733   -8.2405 H         1 <0>         0.1398
     52 H20         1.2579   -9.5924   -8.0609 H         1 <0>         0.3937
     53 H21        -2.9980   -4.2209   -6.9936 H         1 <0>         0.1494
     54 H22        -4.9449   -4.4410   -8.4825 H         1 <0>         0.1357
     55 H23        -6.9731   -6.7307   -5.5073 H         1 <0>         0.1383
     56 H24        -5.0275   -6.5246   -4.0147 H         1 <0>         0.1364
     57 H25         2.5100   -1.4782   -2.2068 H         1 <0>         0.0566
     58 H26         2.1892   -2.1272   -3.8329 H         1 <0>         0.0594
     59 H27         1.2237   -0.7673   -3.2110 H         1 <0>         0.0682
@<TRIPOS>BOND
     1    1    2 1
     2    1   35 1
     3    1   36 1
     4    1   37 1
     5    2    3 2
     6    2    4 1
     7    4    5 1
     8    5    6 1
     9    5   10 1
    10    5    7 1
    11    7    8 1
    12    7   38 1
    13    7   39 1
    14    8    9 1
    15    8   40 1
    16    8   41 1
    17    9   14 1
    18    9   10 1
    19    9   42 1
    20   10   11 1
    21   10   34 1
    22   11   12 1
    23   11   43 1
    24   11   44 1
    25   12   13 1
    26   12   45 1
    27   12   46 1
    28   13   20 1
    29   13   14 1
    30   13   47 1
    31   14   15 1
    32   14   48 1
    33   15   16 1
    34   15   17 1
    35   15   26 1
    36   17   18 2
    37   17   19 1
    38   19   24 ar
    39   19   20 ar
    40   20   21 ar
    41   21   22 ar
    42   21   49 1
    43   22   23 ar
    44   22   50 1
    45   23   24 ar
    46   23   25 1
    47   24   51 1
    48   25   52 1
    49   26   27 1
    50   27   32 ar
    51   27   28 ar
    52   28   29 ar
    53   28   53 1
    54   29   30 ar
    55   29   54 1
    56   30   31 ar
    57   30   33 1
    58   31   32 ar
    59   31   55 1
    60   32   56 1
    61   34   57 1
    62   34   58 1
    63   34   59 1
@<TRIPOS>MOLECULE
CHEMBL391910
   56    59     0     0     0
SMALL
USER_CHARGES

@<TRIPOS>ATOM
      1 C1         -0.0187    1.5258    0.0104 C.3       1 <0>        -0.1646
      2 C2          0.0021   -0.0041    0.0020 C.3       1 <0>         0.1416
      3 H1          0.5123   -0.3556   -0.8948 H         1 <0>         0.0895
      4 C3         -1.4333   -0.5336    0.0129 C.3       1 <0>        -0.1209
      5 C4         -1.4157   -2.0577   -0.1212 C.3       1 <0>        -0.0799
      6 C5         -2.8295   -2.5793   -0.1105 C.ar      1 <0>        -0.0906
      7 C6         -3.4314   -2.9172    1.0875 C.ar      1 <0>        -0.1007
      8 C7         -4.7271   -3.3960    1.1000 C.ar      1 <0>        -0.1428
      9 C8         -5.4247   -3.5373   -0.0909 C.ar      1 <0>         0.0996
     10 C9         -4.8186   -3.1971   -1.2916 C.ar      1 <0>        -0.1424
     11 C10        -3.5245   -2.7138   -1.2982 C.ar      1 <0>        -0.1004
     12 O1         -6.6993   -4.0085   -0.0813 O.3       1 <0>        -0.5005
     13 N1          0.7106   -0.4894    1.1889 N.am      1 <0>        -0.7300
     14 C11         2.0538   -0.5998    1.1737 C.2       1 <0>         0.5130
     15 O2          2.6758   -0.2974    0.1774 O.2       1 <0>        -0.5225
     16 C12         2.7826   -1.0990    2.3946 C.3       1 <0>        -0.0689
     17 C13         4.2638   -1.1281    2.1185 C.2       1 <0>        -0.1334
     18 C14         5.0229   -2.2453    1.5590 C.ar      1 <0>        -0.0895
     19 C15         4.6800   -3.5319    1.1333 C.ar      1 <0>        -0.0694
     20 C16         5.6462   -4.3646    0.6445 C.ar      1 <0>        -0.1444
     21 C17         6.9670   -3.9437    0.5673 C.ar      1 <0>        -0.0976
     22 C18         7.3277   -2.6802    0.9816 C.ar      1 <0>        -0.1298
     23 C19         6.3609   -1.8141    1.4821 C.ar      1 <0>         0.1044
     24 N2          6.4067   -0.5240    1.9625 N.pl3     1 <0>        -0.5872
     25 H2          7.2074    0.0200    2.0248 H         1 <0>         0.4155
     26 C20         5.1454   -0.1209    2.3361 C.2       1 <0>         0.1344
     27 C21         4.8040    1.2060    2.8928 C.ar      1 <0>        -0.0371
     28 C22         3.6792    1.8911    2.4314 C.ar      1 <0>        -0.0949
     29 C23         3.3659    3.1284    2.9552 C.ar      1 <0>        -0.1174
     30 C24         4.1644    3.6903    3.9355 C.ar      1 <0>        -0.1105
     31 C25         5.2809    3.0162    4.3972 C.ar      1 <0>        -0.1178
     32 C26         5.6019    1.7757    3.8858 C.ar      1 <0>        -0.1064
     33 H3          1.0039    1.9031    0.0027 H         1 <0>         0.0607
     34 H4         -0.5459    1.8868   -0.8726 H         1 <0>         0.0656
     35 H5         -0.5289    1.8773    0.9072 H         1 <0>         0.0573
     36 H6         -1.9156   -0.2570    0.9504 H         1 <0>         0.0710
     37 H7         -1.9862   -0.1019   -0.8214 H         1 <0>         0.0807
     38 H8         -0.9334   -2.3344   -1.0587 H         1 <0>         0.0748
     39 H9         -0.8628   -2.4894    0.7131 H         1 <0>         0.0745
     40 H10        -2.8879   -2.8071    2.0143 H         1 <0>         0.1258
     41 H11        -5.1966   -3.6605    2.0359 H         1 <0>         0.1282
     42 H12        -5.3596   -3.3061   -2.2200 H         1 <0>         0.1283
     43 H13        -3.0538   -2.4447   -2.2322 H         1 <0>         0.1265
     44 H14        -7.3727   -3.3195    0.0019 H         1 <0>         0.3909
     45 H15         0.2131   -0.7312    1.9857 H         1 <0>         0.3990
     46 H16         2.5826   -0.4337    3.2345 H         1 <0>         0.0998
     47 H17         2.4385   -2.1044    2.6374 H         1 <0>         0.1015
     48 H18         3.6547   -3.8665    1.1910 H         1 <0>         0.1184
     49 H19         5.3806   -5.3585    0.3157 H         1 <0>         0.1224
     50 H20         7.7196   -4.6138    0.1787 H         1 <0>         0.1255
     51 H21         8.3581   -2.3628    0.9176 H         1 <0>         0.1200
     52 H22         3.0555    1.4539    1.6657 H         1 <0>         0.1308
     53 H23         2.4957    3.6597    2.5990 H         1 <0>         0.1261
     54 H24         3.9152    4.6594    4.3418 H         1 <0>         0.1254
     55 H25         5.9003    3.4604    5.1624 H         1 <0>         0.1267
     56 H26         6.4712    1.2485    4.2502 H         1 <0>         0.1220
@<TRIPOS>BOND
     1    1    2 1
     2    1   33 1
     3    1   34 1
     4    1   35 1
     5    2    3 1
     6    2    4 1
     7    2   13 1
     8    4    5 1
     9    4   36 1
    10    4   37 1
    11    5    6 1
    12    5   38 1
    13    5   39 1
    14    6   11 ar
    15    6    7 ar
    16    7    8 ar
    17    7   40 1
    18    8    9 ar
    19    8   41 1
    20    9   10 ar
    21    9   12 1
    22   10   11 ar
    23   10   42 1
    24   11   43 1
    25   12   44 1
    26   13   14 am
    27   13   45 1
    28   14   15 2
    29   14   16 1
    30   16   17 1
    31   16   46 1
    32   16   47 1
    33   17   26 2
    34   17   18 1
    35   18   23 ar
    36   18   19 ar
    37   19   20 ar
    38   19   48 1
    39   20   21 ar
    40   20   49 1
    41   21   22 ar
    42   21   50 1
    43   22   23 ar
    44   22   51 1
    45   23   24 1
    46   24   25 1
    47   24   26 1
    48   26   27 1
    49   27   32 ar
    50   27   28 ar
    51   28   29 ar
    52   28   52 1
    53   29   30 ar
    54   29   53 1
    55   30   31 ar
    56   30   54 1
    57   31   32 ar
    58   31   55 1
    59   32   56 1
@<TRIPOS>MOLECULE
CHEMBL57150
   38    40     0     0     0
SMALL
USER_CHARGES

@<TRIPOS>ATOM
      1 C1         -0.0167    1.3784    0.0096 C.ar      1 <0>        -0.1011
      2 C2          1.1695    2.0865    0.0021 C.ar      1 <0>        -0.1441
      3 C3          2.3802    1.4093   -0.0131 C.ar      1 <0>         0.0987
      4 C4          2.3963    0.0221   -0.0206 C.ar      1 <0>        -0.1451
      5 C5          1.2074   -0.6814   -0.0130 C.ar      1 <0>        -0.1048
      6 C6          0.0021   -0.0041    0.0020 C.ar      1 <0>        -0.0812
      7 C7         -1.2934   -0.7740    0.0107 C.3       1 <0>        -0.0388
      8 H1         -2.1342   -0.0805    0.0227 H         1 <0>         0.0813
      9 C8         -1.3502   -1.6789    1.2460 C.3       1 <0>        -0.1153
     10 C9         -2.6775   -2.4356    1.2628 C.3       1 <0>        -0.0991
     11 C10        -2.8642   -3.2384   -0.0152 C.3       1 <0>        -0.0510
     12 C11        -1.8638   -4.3815   -0.1179 C.3       1 <0>        -0.0732
     13 C12        -0.5327   -3.9016   -0.6107 C.2       1 <0>        -0.1515
     14 C13        -0.3109   -2.7290   -1.1097 C.2       1 <0>        -0.1546
     15 C14        -1.3750   -1.6689   -1.2376 C.3       1 <0>        -0.0471
     16 H2         -1.2212   -1.0791   -2.1412 H         1 <0>         0.0847
     17 C15        -2.7534   -2.3408   -1.2485 C.3       1 <0>        -0.1043
     18 C16        -4.2665   -3.8500    0.0052 C.3       1 <0>         0.0798
     19 O1         -4.3977   -4.7027    1.1445 O.3       1 <0>        -0.5697
     20 O2          3.5484    2.1036   -0.0209 O.3       1 <0>        -0.5010
     21 H3         -0.9594    1.9052    0.0259 H         1 <0>         0.1253
     22 H4          1.1543    3.1664    0.0076 H         1 <0>         0.1272
     23 H5          3.3375   -0.5074   -0.0328 H         1 <0>         0.1266
     24 H6          1.2194   -1.7613   -0.0189 H         1 <0>         0.1366
     25 H7         -0.5261   -2.3915    1.2126 H         1 <0>         0.0727
     26 H8         -1.2677   -1.0701    2.1464 H         1 <0>         0.0619
     27 H9         -2.6923   -3.1133    2.1164 H         1 <0>         0.0722
     28 H10        -3.4953   -1.7216    1.3596 H         1 <0>         0.0591
     29 H11        -1.7377   -4.8343    0.8656 H         1 <0>         0.0778
     30 H12        -2.2498   -5.1321   -0.8077 H         1 <0>         0.0717
     31 H13         0.3019   -4.5838   -0.5441 H         1 <0>         0.1018
     32 H14         0.6868   -2.4978   -1.4522 H         1 <0>         0.1089
     33 H15        -2.8615   -2.9422   -2.1511 H         1 <0>         0.0688
     34 H16        -3.5324   -1.5789   -1.2191 H         1 <0>         0.0686
     35 H17        -5.0092   -3.0541    0.0596 H         1 <0>         0.0447
     36 H18        -4.4226   -4.4313   -0.9035 H         1 <0>         0.0449
     37 H19        -5.2639   -5.1255    1.2215 H         1 <0>         0.3787
     38 H20         3.8951    2.3001    0.8601 H         1 <0>         0.3901
@<TRIPOS>BOND
     1    1    6 ar
     2    1    2 ar
     3    1   21 1
     4    2    3 ar
     5    2   22 1
     6    3    4 ar
     7    3   20 1
     8    4    5 ar
     9    4   23 1
    10    5    6 ar
    11    5   24 1
    12    6    7 1
    13    7    8 1
    14    7   15 1
    15    7    9 1
    16    9   10 1
    17    9   25 1
    18    9   26 1
    19   10   11 1
    20   10   27 1
    21   10   28 1
    22   11   17 1
    23   11   12 1
    24   11   18 1
    25   12   13 1
    26   12   29 1
    27   12   30 1
    28   13   14 2
    29   13   31 1
    30   14   15 1
    31   14   32 1
    32   15   16 1
    33   15   17 1
    34   17   33 1
    35   17   34 1
    36   18   19 1
    37   18   35 1
    38   18   36 1
    39   19   37 1
    40   20   38 1
@<TRIPOS>MOLECULE
CHEMBL44812
   64    68     0     0     0
SMALL
USER_CHARGES

@<TRIPOS>ATOM
      1 C1          0.1541    1.0199    0.0159 C.ar      1 <0>        -0.0195
      2 C2          1.3088    1.7696   -0.0099 C.ar      1 <0>        -0.1531
      3 C3          2.5482    1.1424    0.0430 C.ar      1 <0>         0.1468
      4 C4          2.6275   -0.2431    0.1217 C.ar      1 <0>        -0.2156
      5 C5          1.4775   -1.0000    0.1479 C.ar      1 <0>        -0.0184
      6 C6          0.2294   -0.3733    0.0954 C.ar      1 <0>        -0.1836
      7 C7         -1.0063   -1.1811    0.1238 C.2       1 <0>         0.4618
      8 O1         -2.0913   -0.6319    0.1810 O.2       1 <0>        -0.4304
      9 C8         -0.9266   -2.6454    0.0831 C.2       1 <0>        -0.1922
     10 C9         -0.9282   -3.4375    1.3164 C.ar      1 <0>        -0.0683
     11 C10        -0.9980   -3.0197    2.6592 C.ar      1 <0>        -0.0646
     12 C11        -0.9854   -3.9315    3.6706 C.ar      1 <0>        -0.1334
     13 C12        -0.9033   -5.2967    3.4119 C.ar      1 <0>         0.1297
     14 C13        -0.8332   -5.7405    2.1007 C.ar      1 <0>        -0.0939
     15 C14        -0.8461   -4.8213    1.0733 C.ar      1 <0>        -0.1325
     16 S1         -0.7774   -4.9367   -0.6931 S.3       1 <0>         0.1910
     17 C15        -0.8545   -3.3117   -1.1005 C.2       1 <0>        -0.1379
     18 C16        -0.8443   -2.7158   -2.4846 C.3       1 <0>        -0.0186
     19 C17        -2.0749   -3.2015   -3.2781 C.3       1 <0>        -0.1199
     20 C18        -1.5460   -3.3894   -4.7218 C.3       1 <0>        -0.1252
     21 C19        -0.1248   -3.9612   -4.4934 C.3       1 <0>        -0.1266
     22 C20         0.3956   -3.1988   -3.2573 C.3       1 <0>        -0.1187
     23 O2         -0.8914   -6.1884    4.4379 O.3       1 <0>        -0.4920
     24 O3          3.6840    1.8849    0.0174 O.3       1 <0>        -0.3243
     25 C21         4.9237    1.1764    0.0749 C.3       1 <0>         0.0231
     26 C22         6.0834    2.1736    0.0352 C.3       1 <0>        -0.0009
     27 N1          6.0365    3.0270    1.2300 N.4       1 <0>        -0.3846
     28 C23         7.0501    4.0824    1.1157 C.3       1 <0>        -0.0071
     29 C24         6.9514    5.0221    2.3194 C.3       1 <0>        -0.1468
     30 C25         7.1867    4.2231    3.6045 C.3       1 <0>        -0.1390
     31 C26         6.1707    3.0796    3.6761 C.3       1 <0>        -0.1456
     32 C27         6.2983    2.2118    2.4222 C.3       1 <0>        -0.0135
     33 H1         -0.8085    1.5082   -0.0208 H         1 <0>         0.1476
     34 H2          1.2515    2.8463   -0.0717 H         1 <0>         0.1414
     35 H3          3.5923   -0.7267    0.1619 H         1 <0>         0.1345
     36 H4          1.5399   -2.0765    0.2087 H         1 <0>         0.1374
     37 H5         -1.0618   -1.9664    2.8892 H         1 <0>         0.1255
     38 H6         -1.0399   -3.5888    4.6933 H         1 <0>         0.1372
     39 H7         -0.7691   -6.7970    1.8858 H         1 <0>         0.1424
     40 H8         -0.8450   -1.6276   -2.4224 H         1 <0>         0.0878
     41 H9         -2.4372   -4.1485   -2.8783 H         1 <0>         0.0749
     42 H10        -2.8641   -2.4500   -3.2558 H         1 <0>         0.0746
     43 H11        -2.1646   -4.0997   -5.2704 H         1 <0>         0.0747
     44 H12        -1.4986   -2.4334   -5.2433 H         1 <0>         0.0706
     45 H13        -0.1721   -5.0309   -4.2898 H         1 <0>         0.0705
     46 H14         0.5092   -3.7641   -5.3579 H         1 <0>         0.0713
     47 H15         0.9963   -2.3450   -3.5708 H         1 <0>         0.0713
     48 H16         0.9900   -3.8642   -2.6311 H         1 <0>         0.0710
     49 H17        -1.7695   -6.4936    4.7040 H         1 <0>         0.3988
     50 H18         4.9708    0.6009    0.9994 H         1 <0>         0.0890
     51 H19         4.9960    0.5009   -0.7776 H         1 <0>         0.1123
     52 H20         7.0285    1.6310    0.0131 H         1 <0>         0.1503
     53 H21         5.9993    2.7933   -0.8575 H         1 <0>         0.1435
     54 H22         8.0421    3.6313    1.0879 H         1 <0>         0.1295
     55 H23         6.8833    4.6480    0.1991 H         1 <0>         0.1313
     56 H24         7.7061    5.8039    2.2335 H         1 <0>         0.1134
     57 H25         5.9599    5.4739    2.3480 H         1 <0>         0.0881
     58 H26         8.1968    3.8135    3.5992 H         1 <0>         0.0823
     59 H27         7.0616    4.8765    4.4679 H         1 <0>         0.0950
     60 H28         6.3672    2.4729    4.5601 H         1 <0>         0.1126
     61 H29         5.1629    3.4911    3.7330 H         1 <0>         0.0879
     62 H30         5.5764    1.3965    2.4701 H         1 <0>         0.1270
     63 H31         7.3062    1.8007    2.3665 H         1 <0>         0.1308
     64 H32         5.1226    3.4479    1.3057 H         1 <0>         0.4292
@<TRIPOS>BOND
     1    1    6 ar
     2    1    2 ar
     3    1   33 1
     4    2    3 ar
     5    2   34 1
     6    3    4 ar
     7    3   24 1
     8    4    5 ar
     9    4   35 1
    10    5    6 ar
    11    5   36 1
    12    6    7 1
    13    7    8 2
    14    7    9 1
    15    9   17 2
    16    9   10 1
    17   10   15 ar
    18   10   11 ar
    19   11   12 ar
    20   11   37 1
    21   12   13 ar
    22   12   38 1
    23   13   14 ar
    24   13   23 1
    25   14   15 ar
    26   14   39 1
    27   15   16 1
    28   16   17 1
    29   17   18 1
    30   18   22 1
    31   18   19 1
    32   18   40 1
    33   19   20 1
    34   19   41 1
    35   19   42 1
    36   20   21 1
    37   20   43 1
    38   20   44 1
    39   21   22 1
    40   21   45 1
    41   21   46 1
    42   22   47 1
    43   22   48 1
    44   23   49 1
    45   24   25 1
    46   25   26 1
    47   25   50 1
    48   25   51 1
    49   26   27 1
    50   26   52 1
    51   26   53 1
    52   27   32 1
    53   27   28 1
    54   27   64 1
    55   28   29 1
    56   28   54 1
    57   28   55 1
    58   29   30 1
    59   29   56 1
    60   29   57 1
    61   30   31 1
    62   30   58 1
    63   30   59 1
    64   31   32 1
    65   31   60 1
    66   31   61 1
    67   32   62 1
    68   32   63 1
@<TRIPOS>MOLECULE
CHEMBL273663
   68    70     0     0     0
SMALL
USER_CHARGES

@<TRIPOS>ATOM
      1 C1          0.4982    0.2050   -1.1198 C.3       1 <0>        -0.1848
      2 C2         -0.2487   -0.9226   -0.4044 C.3       1 <0>         0.0173
      3 C3          0.6205   -1.4713    0.7289 C.3       1 <0>        -0.1938
      4 N1         -1.5056   -0.4027    0.1503 N.4       1 <0>        -0.3818
      5 C4         -2.3281    0.1495   -0.9344 C.3       1 <0>        -0.0093
      6 C5         -3.5709    0.8176   -0.3427 C.3       1 <0>         0.0280
      7 O1         -3.1742    1.9116    0.4866 O.3       1 <0>        -0.3277
      8 C6         -4.1647    2.6169    1.0928 C.ar      1 <0>         0.1108
      9 C7         -5.4913    2.2573    0.8962 C.ar      1 <0>        -0.1992
     10 C8         -6.4989    2.9710    1.5100 C.ar      1 <0>        -0.0644
     11 C9         -6.1844    4.0548    2.3288 C.ar      1 <0>        -0.0469
     12 C10        -4.8512    4.4134    2.5243 C.ar      1 <0>        -0.0674
     13 C11        -3.8480    3.6921    1.9122 C.ar      1 <0>        -0.1396
     14 C12        -7.2653    4.8247    2.9900 C.2       1 <0>        -0.0790
     15 C13        -7.3682    4.8232    4.3247 C.2       1 <0>        -0.0674
     16 C14        -6.3883    4.0478    5.1773 C.3       1 <0>        -0.0920
     17 C15        -5.8301    4.9855    6.2530 C.3       1 <0>        -0.1152
     18 C16        -6.9880    5.6100    7.0333 C.3       1 <0>        -0.1235
     19 C17        -7.8333    6.4787    6.1003 C.3       1 <0>        -0.1164
     20 C18        -8.4634    5.6018    5.0192 C.3       1 <0>        -0.0922
     21 C19        -8.2322    5.5964    2.1728 C.ar      1 <0>        -0.0472
     22 C20        -9.5806    5.2415    2.1657 C.ar      1 <0>        -0.0914
     23 C21       -10.4775    5.9614    1.4050 C.ar      1 <0>        -0.1439
     24 C22       -10.0392    7.0388    0.6468 C.ar      1 <0>         0.1091
     25 C23        -8.6971    7.3945    0.6514 C.ar      1 <0>        -0.1435
     26 C24        -7.7961    6.6821    1.4144 C.ar      1 <0>        -0.0886
     27 O2        -10.9254    7.7462   -0.1017 O.3       1 <0>        -0.5000
     28 C25        -2.2359   -1.4915    0.8130 C.3       1 <0>         0.0176
     29 C26        -2.0279   -2.7925    0.0351 C.3       1 <0>        -0.1879
     30 C27        -1.7125   -1.6617    2.2406 C.3       1 <0>        -0.2076
     31 H1          1.4308   -0.1809   -1.5313 H         1 <0>         0.1061
     32 H2         -0.1211    0.5959   -1.9272 H         1 <0>         0.0813
     33 H3          0.7168    1.0032   -0.4104 H         1 <0>         0.0818
     34 H4         -0.4672   -1.7209   -1.1138 H         1 <0>         0.1418
     35 H5          0.7237   -0.7146    1.5066 H         1 <0>         0.0836
     36 H6          0.1516   -2.3616    1.1480 H         1 <0>         0.0954
     37 H7          1.6055   -1.7287    0.3394 H         1 <0>         0.1047
     38 H8         -1.7491    0.8869   -1.4903 H         1 <0>         0.1456
     39 H9         -2.6322   -0.6543   -1.6050 H         1 <0>         0.1476
     40 H10        -4.2051    1.1846   -1.1496 H         1 <0>         0.1089
     41 H11        -4.1245    0.0920    0.2532 H         1 <0>         0.0851
     42 H12        -5.7343    1.4179    0.2616 H         1 <0>         0.1268
     43 H13        -7.5306    2.6910    1.3564 H         1 <0>         0.1297
     44 H14        -4.6044    5.2526    3.1577 H         1 <0>         0.1353
     45 H15        -2.8149    3.9664    2.0669 H         1 <0>         0.1332
     46 H16        -6.8990    3.2096    5.6515 H         1 <0>         0.0761
     47 H17        -5.5734    3.6787    4.5546 H         1 <0>         0.0742
     48 H18        -5.1955    4.4196    6.9349 H         1 <0>         0.0658
     49 H19        -5.2439    5.7733    5.7798 H         1 <0>         0.0628
     50 H20        -7.6093    4.8195    7.4542 H         1 <0>         0.0638
     51 H21        -6.5907    6.2255    7.8404 H         1 <0>         0.0654
     52 H22        -8.6185    6.9710    6.6741 H         1 <0>         0.0680
     53 H23        -7.1997    7.2311    5.6308 H         1 <0>         0.0631
     54 H24        -8.9811    6.2308    4.2950 H         1 <0>         0.0776
     55 H25        -9.1696    4.9101    5.4785 H         1 <0>         0.0771
     56 H26        -9.9221    4.4033    2.7550 H         1 <0>         0.1266
     57 H27       -11.5220    5.6868    1.3988 H         1 <0>         0.1311
     58 H28        -8.3592    8.2328    0.0603 H         1 <0>         0.1302
     59 H29        -6.7531    6.9623    1.4214 H         1 <0>         0.1245
     60 H30       -11.3278    8.4914    0.3651 H         1 <0>         0.3942
     61 H31        -3.2987   -1.2513    0.8418 H         1 <0>         0.1336
     62 H32        -2.6630   -3.5724    0.4552 H         1 <0>         0.1039
     63 H33        -2.2891   -2.6357   -1.0115 H         1 <0>         0.0777
     64 H34        -0.9836   -3.0961    0.1074 H         1 <0>         0.0899
     65 H35        -2.1397   -0.8881    2.8787 H         1 <0>         0.0823
     66 H36        -1.9991   -2.6432    2.6180 H         1 <0>         0.1041
     67 H37        -0.6260   -1.5748    2.2420 H         1 <0>         0.1008
     68 H38        -1.3024    0.3231    0.8211 H         1 <0>         0.4281
@<TRIPOS>BOND
     1    1    2 1
     2    1   31 1
     3    1   32 1
     4    1   33 1
     5    2    3 1
     6    2    4 1
     7    2   34 1
     8    3   35 1
     9    3   36 1
    10    3   37 1
    11    4    5 1
    12    4   28 1
    13    4   68 1
    14    5    6 1
    15    5   38 1
    16    5   39 1
    17    6    7 1
    18    6   40 1
    19    6   41 1
    20    7    8 1
    21    8   13 ar
    22    8    9 ar
    23    9   10 ar
    24    9   42 1
    25   10   11 ar
    26   10   43 1
    27   11   12 ar
    28   11   14 1
    29   12   13 ar
    30   12   44 1
    31   13   45 1
    32   14   15 2
    33   14   21 1
    34   15   20 1
    35   15   16 1
    36   16   17 1
    37   16   46 1
    38   16   47 1
    39   17   18 1
    40   17   48 1
    41   17   49 1
    42   18   19 1
    43   18   50 1
    44   18   51 1
    45   19   20 1
    46   19   52 1
    47   19   53 1
    48   20   54 1
    49   20   55 1
    50   21   26 ar
    51   21   22 ar
    52   22   23 ar
    53   22   56 1
    54   23   24 ar
    55   23   57 1
    56   24   25 ar
    57   24   27 1
    58   25   26 ar
    59   25   58 1
    60   26   59 1
    61   27   60 1
    62   28   29 1
    63   28   30 1
    64   28   61 1
    65   29   62 1
    66   29   63 1
    67   29   64 1
    68   30   65 1
    69   30   66 1
    70   30   67 1
@<TRIPOS>MOLECULE
CHEMBL195466
   71    76     0     0     0
SMALL
USER_CHARGES

@<TRIPOS>ATOM
      1 C1         -0.5277    2.6487   -0.2936 C.ar      1 <0>        -0.0541
      2 C2          0.8186    2.9427   -0.1945 C.ar      1 <0>        -0.2064
      3 C3          1.7431    1.9196   -0.0249 C.ar      1 <0>         0.2400
      4 C4          1.3121    0.6017    0.0453 C.ar      1 <0>        -0.2246
      5 C5         -0.0392    0.3113   -0.0541 C.ar      1 <0>         0.1545
      6 C6         -0.9583    1.3376   -0.2240 C.ar      1 <0>        -0.2011
      7 O1         -0.4643   -0.9777    0.0137 O.3       1 <0>        -0.4995
      8 N1          3.1042    2.2165    0.0744 N.pl3     1 <0>        -0.6176
      9 C7          4.0960    1.1706    0.3749 C.3       1 <0>         0.1135
     10 C8          5.0179    1.0360   -0.8360 C.3       1 <0>        -0.1041
     11 C9          5.4877    2.3878   -1.3052 C.ar      1 <0>        -0.0467
     12 C10         6.6322    2.4338   -2.0907 C.ar      1 <0>        -0.1475
     13 C11         7.1131    3.6426   -2.5630 C.ar      1 <0>         0.1153
     14 C12         6.4448    4.8178   -2.2505 C.ar      1 <0>        -0.1454
     15 C13         5.3107    4.7703   -1.4681 C.ar      1 <0>        -0.0881
     16 C14         4.8327    3.5574   -0.9894 C.ar      1 <0>        -0.1012
     17 C15         3.6036    3.5815   -0.1226 C.3       1 <0>         0.2414
     18 C16         3.9498    4.1864    1.2136 C.ar      1 <0>        -0.1254
     19 C17         4.9826    3.6554    1.9644 C.ar      1 <0>        -0.0525
     20 C18         5.3025    4.2073    3.1893 C.ar      1 <0>        -0.1852
     21 C19         4.5856    5.2971    3.6668 C.ar      1 <0>         0.2020
     22 C20         3.5487    5.8280    2.9100 C.ar      1 <0>        -0.1830
     23 C21         3.2377    5.2747    1.6834 C.ar      1 <0>        -0.0567
     24 N2          4.9062    5.8575    4.9054 N.pl3     1 <0>        -0.6436
     25 C22         4.0810    6.9268    5.4882 C.3       1 <0>         0.1011
     26 C23         3.7331    6.5409    6.9297 C.3       1 <0>        -0.0234
     27 N3          4.9684    6.2565    7.6709 N.4       1 <0>        -0.3785
     28 C24         5.6362    5.0812    7.0975 C.3       1 <0>        -0.0269
     29 C25         6.0751    5.3908    5.6669 C.3       1 <0>         0.1001
     30 C26         4.6429    5.9940    9.0791 C.3       1 <0>         0.0194
     31 C27         4.0146    7.2493    9.7191 C.3       1 <0>        -0.1419
     32 C28         4.5789    7.2632   11.1615 C.3       1 <0>        -0.1244
     33 C29         6.0362    6.7772   10.9631 C.3       1 <0>        -0.1303
     34 C30         5.9282    5.6939    9.8701 C.3       1 <0>        -0.1446
     35 O2          8.2345    3.6783   -3.3298 O.3       1 <0>        -0.4996
     36 H1         -1.2454    3.4456   -0.4212 H         1 <0>         0.1266
     37 H2          1.1525    3.9683   -0.2492 H         1 <0>         0.1205
     38 H3          2.0286   -0.1956    0.1767 H         1 <0>         0.1285
     39 H4         -2.0114    1.1111   -0.3015 H         1 <0>         0.1259
     40 H5         -0.6674   -1.2782    0.9101 H         1 <0>         0.3927
     41 H6          4.6778    1.4551    1.2516 H         1 <0>         0.0734
     42 H7          3.5889    0.2236    0.5595 H         1 <0>         0.0919
     43 H8          5.8825    0.4310   -0.5628 H         1 <0>         0.0878
     44 H9          4.4779    0.5436   -1.6447 H         1 <0>         0.0866
     45 H10         7.1514    1.5187   -2.3347 H         1 <0>         0.1299
     46 H11         6.8114    5.7649   -2.6180 H         1 <0>         0.1313
     47 H12         4.7898    5.6845   -1.2248 H         1 <0>         0.1260
     48 H13         2.8329    4.1836   -0.6038 H         1 <0>         0.1040
     49 H14         5.5393    2.8079    1.5927 H         1 <0>         0.1281
     50 H15         6.1090    3.7919    3.7753 H         1 <0>         0.1222
     51 H16         2.9891    6.6750    3.2786 H         1 <0>         0.1241
     52 H17         2.4346    5.6897    1.0925 H         1 <0>         0.1275
     53 H18         4.6387    7.8633    5.4841 H         1 <0>         0.0870
     54 H19         3.1651    7.0400    4.9082 H         1 <0>         0.1266
     55 H20         3.2034    7.3644    7.4086 H         1 <0>         0.1402
     56 H21         3.0993    5.6542    6.9257 H         1 <0>         0.1322
     57 H22         6.5088    4.8290    7.7001 H         1 <0>         0.1417
     58 H23         4.9448    4.2386    7.0885 H         1 <0>         0.1324
     59 H24         6.4770    4.4890    5.2050 H         1 <0>         0.1266
     60 H25         6.8376    6.1696    5.6812 H         1 <0>         0.0868
     61 H26         3.9543    5.1523    9.1523 H         1 <0>         0.1390
     62 H27         4.3214    8.1461    9.1808 H         1 <0>         0.0868
     63 H28         2.9280    7.1659    9.7354 H         1 <0>         0.0978
     64 H29         4.5609    8.2721   11.5736 H         1 <0>         0.0890
     65 H30         4.0254    6.5742   11.7994 H         1 <0>         0.0836
     66 H31         6.6694    7.5977   10.6257 H         1 <0>         0.0777
     67 H32         6.4248    6.3493   11.8872 H         1 <0>         0.0878
     68 H33         5.8630    4.7068   10.3279 H         1 <0>         0.1029
     69 H34         6.7935    5.7429    9.2090 H         1 <0>         0.0848
     70 H35         8.0648    3.6012   -4.2787 H         1 <0>         0.3953
     71 H36         5.5847    7.0533    7.6135 H         1 <0>         0.4201
@<TRIPOS>BOND
     1    1    6 ar
     2    1    2 ar
     3    1   36 1
     4    2    3 ar
     5    2   37 1
     6    3    4 ar
     7    3    8 1
     8    4    5 ar
     9    4   38 1
    10    5    6 ar
    11    5    7 1
    12    6   39 1
    13    7   40 1
    14    8   17 1
    15    8    9 1
    16    9   10 1
    17    9   41 1
    18    9   42 1
    19   10   11 1
    20   10   43 1
    21   10   44 1
    22   11   16 ar
    23   11   12 ar
    24   12   13 ar
    25   12   45 1
    26   13   14 ar
    27   13   35 1
    28   14   15 ar
    29   14   46 1
    30   15   16 ar
    31   15   47 1
    32   16   17 1
    33   17   18 1
    34   17   48 1
    35   18   23 ar
    36   18   19 ar
    37   19   20 ar
    38   19   49 1
    39   20   21 ar
    40   20   50 1
    41   21   22 ar
    42   21   24 1
    43   22   23 ar
    44   22   51 1
    45   23   52 1
    46   24   29 1
    47   24   25 1
    48   25   26 1
    49   25   53 1
    50   25   54 1
    51   26   27 1
    52   26   55 1
    53   26   56 1
    54   27   28 1
    55   27   30 1
    56   27   71 1
    57   28   29 1
    58   28   57 1
    59   28   58 1
    60   29   59 1
    61   29   60 1
    62   30   34 1
    63   30   31 1
    64   30   61 1
    65   31   32 1
    66   31   62 1
    67   31   63 1
    68   32   33 1
    69   32   64 1
    70   32   65 1
    71   33   34 1
    72   33   66 1
    73   33   67 1
    74   34   68 1
    75   34   69 1
    76   35   70 1
@<TRIPOS>MOLECULE
CHEMBL195466__1
   71    76     0     0     0
SMALL
USER_CHARGES

@<TRIPOS>ATOM
      1 C1          7.0856    2.9096    2.2778 C.ar      1 <0>        -0.0533
      2 C2          5.9422    3.1487    1.5400 C.ar      1 <0>        -0.2073
      3 C3          5.2259    4.3241    1.7288 C.ar      1 <0>         0.2404
      4 C4          5.6605    5.2576    2.6601 C.ar      1 <0>        -0.2252
      5 C5          6.8075    5.0136    3.3983 C.ar      1 <0>         0.1546
      6 C6          7.5194    3.8376    3.2050 C.ar      1 <0>        -0.2013
      7 O1          7.2358    5.9254    4.3104 O.3       1 <0>        -0.5017
      8 N1          4.0706    4.5665    0.9824 N.pl3     1 <0>        -0.6179
      9 C7          3.2308    5.7494    1.2339 C.3       1 <0>         0.1130
     10 C8          1.8669    5.2620    1.7204 C.3       1 <0>        -0.1028
     11 C9          1.3455    4.1589    0.8374 C.ar      1 <0>        -0.0469
     12 C10        -0.0194    3.9032    0.8662 C.ar      1 <0>        -0.1476
     13 C11        -0.5630    2.8967    0.0871 C.ar      1 <0>         0.1149
     14 C12         0.2629    2.1365   -0.7286 C.ar      1 <0>        -0.1454
     15 C13         1.6168    2.3946   -0.7588 C.ar      1 <0>        -0.0884
     16 C14         2.1604    3.4084    0.0193 C.ar      1 <0>        -0.1004
     17 C15         3.6486    3.6561   -0.0873 C.3       1 <0>         0.2404
     18 C16         3.9642    4.2739   -1.4251 C.ar      1 <0>        -0.1255
     19 C17         4.9012    3.6841   -2.2536 C.ar      1 <0>        -0.0558
     20 C18         5.1928    4.2477   -3.4802 C.ar      1 <0>        -0.1838
     21 C19         4.5436    5.4084   -3.8815 C.ar      1 <0>         0.2021
     22 C20         3.6029    5.9983   -3.0468 C.ar      1 <0>        -0.1850
     23 C21         3.3120    5.4263   -1.8239 C.ar      1 <0>        -0.0529
     24 N2          4.8364    5.9813   -5.1212 N.pl3     1 <0>        -0.6436
     25 C22         4.2601    7.2775   -5.5105 C.3       1 <0>         0.1013
     26 C23         5.3933    8.1860   -5.9988 C.3       1 <0>        -0.0235
     27 N3          6.1368    7.5077   -7.0680 N.4       1 <0>        -0.3784
     28 C24         6.7942    6.3072   -6.5361 C.3       1 <0>        -0.0273
     29 C25         5.7348    5.3084   -6.0721 C.3       1 <0>         0.1002
     30 C26         7.1522    8.4200   -7.6107 C.3       1 <0>         0.0193
     31 C27         6.4717    9.6493   -8.2476 C.3       1 <0>        -0.1420
     32 C28         7.3413    9.9635   -9.4903 C.3       1 <0>        -0.1244
     33 C29         7.7120    8.5535  -10.0133 C.3       1 <0>        -0.1303
     34 C30         7.9408    7.7233   -8.7334 C.3       1 <0>        -0.1445
     35 O2         -1.8998    2.6544    0.1205 O.3       1 <0>        -0.4975
     36 H1          7.6388    1.9935    2.1327 H         1 <0>         0.1269
     37 H2          5.6053    2.4217    0.8159 H         1 <0>         0.1213
     38 H3          5.1058    6.1723    2.8087 H         1 <0>         0.1282
     39 H4          8.4134    3.6476    3.7804 H         1 <0>         0.1259
     40 H5          6.8745    5.7939    5.1976 H         1 <0>         0.3948
     41 H6          3.6932    6.3742    1.9980 H         1 <0>         0.0922
     42 H7          3.1116    6.3196    0.3127 H         1 <0>         0.0731
     43 H8          1.9621    4.8899    2.7405 H         1 <0>         0.0862
     44 H9          1.1633    6.0944    1.7075 H         1 <0>         0.0876
     45 H10        -0.6617    4.4943    1.5021 H         1 <0>         0.1300
     46 H11        -0.1528    1.3469   -1.3370 H         1 <0>         0.1313
     47 H12         2.2604    1.8027   -1.3926 H         1 <0>         0.1260
     48 H13         4.1822    2.7105    0.0096 H         1 <0>         0.1050
     49 H14         5.4058    2.7819   -1.9409 H         1 <0>         0.1278
     50 H15         5.9249    3.7867   -4.1267 H         1 <0>         0.1239
     51 H16         3.0967    6.9009   -3.3555 H         1 <0>         0.1224
     52 H17         2.5775    5.8820   -1.1763 H         1 <0>         0.1282
     53 H18         3.5368    7.1307   -6.3127 H         1 <0>         0.0869
     54 H19         3.7699    7.7336   -4.6504 H         1 <0>         0.1259
     55 H20         4.9739    9.1164   -6.3816 H         1 <0>         0.1401
     56 H21         6.0666    8.4045   -5.1701 H         1 <0>         0.1323
     57 H22         7.4071    5.8533   -7.3148 H         1 <0>         0.1419
     58 H23         7.4252    6.5826   -5.6911 H         1 <0>         0.1327
     59 H24         6.2192    4.4632   -5.5831 H         1 <0>         0.1272
     60 H25         5.1630    4.9594   -6.9320 H         1 <0>         0.0868
     61 H26         7.8309    8.7365   -6.8187 H         1 <0>         0.1391
     62 H27         5.4517    9.4084   -8.5468 H         1 <0>         0.0866
     63 H28         6.4785   10.4907   -7.5547 H         1 <0>         0.0978
     64 H29         6.7659   10.5129  -10.2354 H         1 <0>         0.0889
     65 H30         8.2358   10.5175   -9.2058 H         1 <0>         0.0837
     66 H31         6.8922    8.1356  -10.5977 H         1 <0>         0.0776
     67 H32         8.6239    8.5952  -10.6091 H         1 <0>         0.0879
     68 H33         9.0023    7.7024   -8.4866 H         1 <0>         0.1031
     69 H34         7.5700    6.7082   -8.8756 H         1 <0>         0.0848
     70 H35        -2.4075    3.1598   -0.5291 H         1 <0>         0.3929
     71 H36         5.4990    7.2424   -7.8035 H         1 <0>         0.4199
@<TRIPOS>BOND
     1    1    6 ar
     2    1    2 ar
     3    1   36 1
     4    2    3 ar
     5    2   37 1
     6    3    4 ar
     7    3    8 1
     8    4    5 ar
     9    4   38 1
    10    5    6 ar
    11    5    7 1
    12    6   39 1
    13    7   40 1
    14    8   17 1
    15    8    9 1
    16    9   10 1
    17    9   41 1
    18    9   42 1
    19   10   11 1
    20   10   43 1
    21   10   44 1
    22   11   16 ar
    23   11   12 ar
    24   12   13 ar
    25   12   45 1
    26   13   14 ar
    27   13   35 1
    28   14   15 ar
    29   14   46 1
    30   15   16 ar
    31   15   47 1
    32   16   17 1
    33   17   18 1
    34   17   48 1
    35   18   23 ar
    36   18   19 ar
    37   19   20 ar
    38   19   49 1
    39   20   21 ar
    40   20   50 1
    41   21   22 ar
    42   21   24 1
    43   22   23 ar
    44   22   51 1
    45   23   52 1
    46   24   29 1
    47   24   25 1
    48   25   26 1
    49   25   53 1
    50   25   54 1
    51   26   27 1
    52   26   55 1
    53   26   56 1
    54   27   28 1
    55   27   30 1
    56   27   71 1
    57   28   29 1
    58   28   57 1
    59   28   58 1
    60   29   59 1
    61   29   60 1
    62   30   34 1
    63   30   31 1
    64   30   61 1
    65   31   32 1
    66   31   62 1
    67   31   63 1
    68   32   33 1
    69   32   64 1
    70   32   65 1
    71   33   34 1
    72   33   66 1
    73   33   67 1
    74   34   68 1
    75   34   69 1
    76   35   70 1
@<TRIPOS>MOLECULE
CHEMBL264216
   66    71     0     0     0
SMALL
USER_CHARGES

@<TRIPOS>ATOM
      1 C1         -0.0167    1.3784    0.0096 C.ar      1 <0>        -0.0552
      2 C2          1.1695    2.0865    0.0021 C.ar      1 <0>        -0.1401
      3 C3          2.3802    1.4093   -0.0131 C.ar      1 <0>         0.1242
      4 C4          2.3963    0.0221   -0.0206 C.ar      1 <0>        -0.2006
      5 C5          1.2074   -0.6814   -0.0130 C.ar      1 <0>        -0.0631
      6 C6          0.0021   -0.0041    0.0020 C.ar      1 <0>        -0.1355
      7 C7         -1.2934   -0.7740    0.0107 C.3       1 <0>         0.1479
      8 N1         -1.7268   -1.0161   -1.3676 N.pl3     1 <0>        -0.4679
      9 C8         -2.5330   -0.1693   -2.0978 C.ar      1 <0>         0.1321
     10 C9         -3.1340    1.0514   -1.8070 C.ar      1 <0>        -0.1199
     11 C10        -3.9055    1.6853   -2.7556 C.ar      1 <0>        -0.1036
     12 C11        -4.0932    1.1150   -4.0115 C.ar      1 <0>         0.0829
     13 C12        -3.5061   -0.0956   -4.3199 C.ar      1 <0>        -0.0876
     14 C13        -2.7202   -0.7481   -3.3659 C.ar      1 <0>        -0.0425
     15 C14        -1.9733   -1.9987   -3.3498 C.2       1 <0>        -0.1760
     16 C15        -1.3742   -2.1399   -2.1315 C.2       1 <0>         0.0952
     17 C16        -0.5626   -3.3553   -1.9315 C.ar      1 <0>        -0.0740
     18 C17         0.1504   -3.7323   -0.7696 C.ar      1 <0>        -0.0739
     19 C18         0.8596   -4.8920   -0.7359 C.ar      1 <0>        -0.1432
     20 C19         0.9096   -5.7448   -1.8359 C.ar      1 <0>         0.1373
     21 C20         0.2227   -5.4068   -2.9912 C.ar      1 <0>        -0.0971
     22 C21        -0.4981   -4.2317   -3.0306 C.ar      1 <0>        -0.0869
     23 S1         -1.4999   -3.4426   -4.2639 S.3       1 <0>         0.1202
     24 O1          1.6262   -6.8984   -1.7771 O.3       1 <0>        -0.4917
     25 O2         -4.8581    1.7526   -4.9378 O.3       1 <0>        -0.4934
     26 O3          3.5484    2.1036   -0.0209 O.3       1 <0>        -0.3258
     27 C22         4.7565    1.3405   -0.0365 C.3       1 <0>         0.0246
     28 C23         5.9580    2.2878   -0.0434 C.3       1 <0>        -0.0003
     29 N2          5.9923    3.0443    1.2153 N.4       1 <0>        -0.3789
     30 C24         6.2683    2.1506    2.3168 C.3       1 <0>        -0.0250
     31 C25         5.4854    2.5590    3.5765 C.3       1 <0>        -0.1437
     32 C26         5.4620    4.0848    3.7932 C.3       1 <0>        -0.1424
     33 C27         6.7909    4.7439    3.5314 C.3       1 <0>        -0.1341
     34 C28         6.8567    5.1866    2.0497 C.3       1 <0>        -0.1571
     35 C29         7.0744    4.0432    1.1686 C.3       1 <0>        -0.0024
     36 H1         -0.9594    1.9052    0.0259 H         1 <0>         0.1362
     37 H2          1.1543    3.1664    0.0076 H         1 <0>         0.1364
     38 H3          3.3375   -0.5074   -0.0328 H         1 <0>         0.1298
     39 H4          1.2194   -1.7613   -0.0189 H         1 <0>         0.1328
     40 H5         -1.1460   -1.7274    0.5180 H         1 <0>         0.0980
     41 H6         -2.0553   -0.1973    0.5352 H         1 <0>         0.1036
     42 H7         -2.9956    1.5025   -0.8355 H         1 <0>         0.1273
     43 H8         -4.3690    2.6326   -2.5229 H         1 <0>         0.1385
     44 H9         -3.6534   -0.5369   -5.2945 H         1 <0>         0.1346
     45 H10         0.1317   -3.0921    0.0999 H         1 <0>         0.1252
     46 H11         1.3960   -5.1573    0.1632 H         1 <0>         0.1360
     47 H12         0.2519   -6.0574   -3.8528 H         1 <0>         0.1460
     48 H13         1.1207   -7.6597   -1.4610 H         1 <0>         0.3998
     49 H14        -4.3641    2.3605   -5.5048 H         1 <0>         0.3901
     50 H15         4.7979    0.7076    0.8500 H         1 <0>         0.0873
     51 H16         4.7806    0.7165   -0.9299 H         1 <0>         0.1108
     52 H17         6.8762    1.7093   -0.1448 H         1 <0>         0.1515
     53 H18         5.8702    2.9798   -0.8810 H         1 <0>         0.1438
     54 H19         5.9853    1.1369    2.0335 H         1 <0>         0.1259
     55 H20         7.3357    2.1740    2.5366 H         1 <0>         0.1313
     56 H21         4.4600    2.2007    3.4853 H         1 <0>         0.0878
     57 H22         5.9450    2.0872    4.4450 H         1 <0>         0.1071
     58 H23         4.7177    4.5213    3.1271 H         1 <0>         0.0655
     59 H24         5.1678    4.2875    4.8229 H         1 <0>         0.0917
     60 H25         6.8985    5.6156    4.1770 H         1 <0>         0.0909
     61 H26         7.5947    4.0368    3.7362 H         1 <0>         0.0779
     62 H27         5.9192    5.6727    1.7798 H         1 <0>         0.0875
     63 H28         7.6750    5.8956    1.9243 H         1 <0>         0.1181
     64 H29         8.0086    3.5582    1.4517 H         1 <0>         0.1286
     65 H30         7.1699    4.4055    0.1450 H         1 <0>         0.1273
     66 H31         5.1069    3.5056    1.3614 H         1 <0>         0.4298
@<TRIPOS>BOND
     1    1    6 ar
     2    1    2 ar
     3    1   36 1
     4    2    3 ar
     5    2   37 1
     6    3    4 ar
     7    3   26 1
     8    4    5 ar
     9    4   38 1
    10    5    6 ar
    11    5   39 1
    12    6    7 1
    13    7    8 1
    14    7   40 1
    15    7   41 1
    16    8   16 1
    17    8    9 1
    18    9   14 ar
    19    9   10 ar
    20   10   11 ar
    21   10   42 1
    22   11   12 ar
    23   11   43 1
    24   12   13 ar
    25   12   25 1
    26   13   14 ar
    27   13   44 1
    28   14   15 1
    29   15   23 1
    30   15   16 2
    31   16   17 1
    32   17   22 ar
    33   17   18 ar
    34   18   19 ar
    35   18   45 1
    36   19   20 ar
    37   19   46 1
    38   20   21 ar
    39   20   24 1
    40   21   22 ar
    41   21   47 1
    42   22   23 1
    43   24   48 1
    44   25   49 1
    45   26   27 1
    46   27   28 1
    47   27   50 1
    48   27   51 1
    49   28   29 1
    50   28   52 1
    51   28   53 1
    52   29   35 1
    53   29   30 1
    54   29   66 1
    55   30   31 1
    56   30   54 1
    57   30   55 1
    58   31   32 1
    59   31   56 1
    60   31   57 1
    61   32   33 1
    62   32   58 1
    63   32   59 1
    64   33   34 1
    65   33   60 1
    66   33   61 1
    67   34   35 1
    68   34   62 1
    69   34   63 1
    70   35   64 1
    71   35   65 1
@<TRIPOS>MOLECULE
CHEMBL215428
   45    49     0     0     0
SMALL
USER_CHARGES

@<TRIPOS>ATOM
      1 C1         -0.0187    1.5258    0.0104 C.3       1 <0>        -0.1567
      2 C2          0.0021   -0.0041    0.0020 C.3       1 <0>        -0.1045
      3 C3          0.7182   -0.4975   -1.2568 C.3       1 <0>        -0.0360
      4 C4          0.0221   -0.0053   -2.5278 C.3       1 <0>        -0.1070
      5 C5         -1.3847   -0.6082   -2.5855 C.3       1 <0>        -0.1647
      6 C6         -1.3157   -2.1122   -2.5553 C.2       1 <0>         0.3949
      7 O1         -2.1923   -2.7682   -3.0796 O.2       1 <0>        -0.4469
      8 C7         -0.1932   -2.7880   -1.8950 C.2       1 <0>        -0.1418
      9 C8          0.7679   -2.0154   -1.3166 C.2       1 <0>         0.0211
     10 C9          2.0261   -2.4171   -0.6844 C.ar      1 <0>        -0.0651
     11 C10         2.4087   -3.6513   -0.1020 C.ar      1 <0>        -0.0628
     12 C11         3.6502   -3.8558    0.3896 C.ar      1 <0>        -0.0682
     13 C12         4.6075   -2.8241    0.3343 C.ar      1 <0>         0.0434
     14 C13         4.2229   -1.5247   -0.2374 C.ar      1 <0>         0.0344
     15 C14         2.9158   -1.3478   -0.7130 C.ar      1 <0>        -0.0089
     16 C15         2.2094   -0.1177   -1.2464 C.3       1 <0>        -0.0731
     17 N1          5.3165   -0.7809   -0.1495 N.2       1 <0>        -0.2604
     18 N2          6.2525   -1.4824    0.3885 N.pl3     1 <0>        -0.1931
     19 N3          5.8744   -2.6770    0.6829 N.2       1 <0>        -0.2702
     20 H1          7.1471   -1.1463    0.5546 H         1 <0>         0.4747
     21 C16        -0.1080   -4.2668   -1.8578 C.ar      1 <0>        -0.0431
     22 C17         0.9315   -4.9239   -2.5161 C.ar      1 <0>        -0.0839
     23 C18         1.0079   -6.3001   -2.4790 C.ar      1 <0>        -0.1445
     24 C19         0.0515   -7.0318   -1.7878 C.ar      1 <0>         0.1093
     25 C20        -0.9849   -6.3810   -1.1319 C.ar      1 <0>        -0.1436
     26 C21        -1.0639   -5.0046   -1.1596 C.ar      1 <0>        -0.0773
     27 O2          0.1296   -8.3880   -1.7537 O.3       1 <0>        -0.4992
     28 H2          1.0039    1.9031    0.0027 H         1 <0>         0.0594
     29 H3         -0.5459    1.8868   -0.8726 H         1 <0>         0.0618
     30 H4         -0.5289    1.8773    0.9072 H         1 <0>         0.0603
     31 H5          0.5293   -0.3651    0.8851 H         1 <0>         0.0710
     32 H6         -1.0205   -0.3814    0.0098 H         1 <0>         0.0721
     33 H7         -0.0471    1.0823   -2.5086 H         1 <0>         0.0894
     34 H8          0.5913   -0.3217   -3.4019 H         1 <0>         0.0767
     35 H9         -1.9618   -0.2572   -1.7300 H         1 <0>         0.1064
     36 H10        -1.8754   -0.2890   -3.5051 H         1 <0>         0.1007
     37 H11         1.6859   -4.4520   -0.0492 H         1 <0>         0.1367
     38 H12         3.9084   -4.8097    0.8250 H         1 <0>         0.1417
     39 H13         2.5508    0.1082   -2.2566 H         1 <0>         0.0965
     40 H14         2.3799    0.7337   -0.5876 H         1 <0>         0.0964
     41 H15         1.6754   -4.3554   -3.0545 H         1 <0>         0.1254
     42 H16         1.8125   -6.8095   -2.9884 H         1 <0>         0.1305
     43 H17        -1.7275   -6.9532   -0.5958 H         1 <0>         0.1311
     44 H18        -1.8677   -4.4988   -0.6454 H         1 <0>         0.1260
     45 H19         0.6451   -8.7337   -1.0122 H         1 <0>         0.3912
@<TRIPOS>BOND
     1    1    2 1
     2    1   28 1
     3    1   29 1
     4    1   30 1
     5    2    3 1
     6    2   31 1
     7    2   32 1
     8    3    9 1
     9    3   16 1
    10    3    4 1
    11    4    5 1
    12    4   33 1
    13    4   34 1
    14    5    6 1
    15    5   35 1
    16    5   36 1
    17    6    7 2
    18    6    8 1
    19    8    9 2
    20    8   21 1
    21    9   10 1
    22   10   15 ar
    23   10   11 ar
    24   11   12 ar
    25   11   37 1
    26   12   13 ar
    27   12   38 1
    28   13   14 ar
    29   13   19 2
    30   14   15 ar
    31   14   17 2
    32   15   16 1
    33   16   39 1
    34   16   40 1
    35   17   18 1
    36   18   20 1
    37   18   19 1
    38   21   26 ar
    39   21   22 ar
    40   22   23 ar
    41   22   41 1
    42   23   24 ar
    43   23   42 1
    44   24   25 ar
    45   24   27 1
    46   25   26 ar
    47   25   43 1
    48   26   44 1
    49   27   45 1
@<TRIPOS>MOLECULE
CHEMBL215428__1
   45    49     0     0     0
SMALL
USER_CHARGES

@<TRIPOS>ATOM
      1 C1         -0.0187    1.5258    0.0104 C.3       1 <0>        -0.1563
      2 C2          0.0021   -0.0041    0.0020 C.3       1 <0>        -0.1057
      3 C3          0.7421   -0.5109    1.2415 C.3       1 <0>        -0.0332
      4 C4          2.1831    0.0025    1.2823 C.3       1 <0>        -0.1072
      5 C5          2.9428   -0.5628    0.0785 C.3       1 <0>        -0.1648
      6 C6          2.9047   -2.0682    0.0905 C.2       1 <0>         0.3936
      7 O1          3.8051   -2.6997   -0.4232 O.2       1 <0>        -0.4435
      8 C7          1.7838   -2.7749    0.7211 C.2       1 <0>        -0.1325
      9 C8          0.7919   -2.0296    1.2827 C.2       1 <0>         0.0141
     10 C9         -0.3753   -2.4643    2.0503 C.ar      1 <0>        -0.0457
     11 C10        -1.0516   -3.7012    2.0856 C.ar      1 <0>        -0.0778
     12 C11        -2.0938   -3.9000    2.9345 C.ar      1 <0>        -0.0531
     13 C12        -2.5139   -2.8686    3.7829 C.ar      1 <0>         0.0282
     14 C13        -1.8719   -1.6151    3.7321 C.ar      1 <0>         0.0371
     15 C14        -0.8175   -1.4103    2.8569 C.ar      1 <0>        -0.0573
     16 C15        -0.0172   -0.1648    2.5344 C.3       1 <0>        -0.0757
     17 N1         -2.5217   -0.8395    4.6621 N.pl3     1 <0>        -0.4142
     18 N2         -3.4391   -1.5578    5.2113 N.2       1 <0>        -0.0073
     19 N3         -3.4670   -2.7493    4.7273 N.2       1 <0>        -0.2480
     20 H1         -2.3237    0.0873    4.8691 H         1 <0>         0.4535
     21 C16         1.7321   -4.2555    0.7450 C.ar      1 <0>        -0.0474
     22 C17         1.7961   -4.9377    1.9600 C.ar      1 <0>        -0.0834
     23 C18         1.7473   -6.3155    1.9787 C.ar      1 <0>        -0.1443
     24 C19         1.6351   -7.0240    0.7898 C.ar      1 <0>         0.1115
     25 C20         1.5717   -6.3482   -0.4214 C.ar      1 <0>        -0.1435
     26 C21         1.6137   -4.9702   -0.4470 C.ar      1 <0>        -0.0764
     27 O2          1.5877   -8.3818    0.8118 O.3       1 <0>        -0.4989
     28 H2          1.0039    1.9031    0.0027 H         1 <0>         0.0623
     29 H3         -0.5459    1.8868   -0.8726 H         1 <0>         0.0614
     30 H4         -0.5289    1.8773    0.9072 H         1 <0>         0.0575
     31 H5         -1.0205   -0.3814    0.0098 H         1 <0>         0.0712
     32 H6          0.5123   -0.3556   -0.8948 H         1 <0>         0.0732
     33 H7          2.1843    1.0916    1.2364 H         1 <0>         0.0894
     34 H8          2.6623   -0.3268    2.2042 H         1 <0>         0.0767
     35 H9          2.4833   -0.1987   -0.8403 H         1 <0>         0.1069
     36 H10         3.9797   -0.2289    0.1183 H         1 <0>         0.1017
     37 H11        -0.7378   -4.4998    1.4298 H         1 <0>         0.1393
     38 H12        -2.5988   -4.8545    2.9545 H         1 <0>         0.1453
     39 H13         0.6842    0.0548    3.3393 H         1 <0>         0.0947
     40 H14        -0.6831    0.6820    2.3684 H         1 <0>         0.0924
     41 H15         1.8841   -4.3872    2.8851 H         1 <0>         0.1251
     42 H16         1.7968   -6.8443    2.9191 H         1 <0>         0.1314
     43 H17         1.4848   -6.9024   -1.3443 H         1 <0>         0.1318
     44 H18         1.5594   -4.4451   -1.3891 H         1 <0>         0.1261
     45 H19         0.6935   -8.7431    0.8823 H         1 <0>         0.3921
@<TRIPOS>BOND
     1    1    2 1
     2    1   28 1
     3    1   29 1
     4    1   30 1
     5    2    3 1
     6    2   31 1
     7    2   32 1
     8    3    9 1
     9    3   16 1
    10    3    4 1
    11    4    5 1
    12    4   33 1
    13    4   34 1
    14    5    6 1
    15    5   35 1
    16    5   36 1
    17    6    7 2
    18    6    8 1
    19    8    9 2
    20    8   21 1
    21    9   10 1
    22   10   15 ar
    23   10   11 ar
    24   11   12 ar
    25   11   37 1
    26   12   13 ar
    27   12   38 1
    28   13   14 ar
    29   13   19 1
    30   14   15 ar
    31   14   17 1
    32   15   16 1
    33   16   39 1
    34   16   40 1
    35   17   20 1
    36   17   18 1
    37   18   19 2
    38   21   26 ar
    39   21   22 ar
    40   22   23 ar
    41   22   41 1
    42   23   24 ar
    43   23   42 1
    44   24   25 ar
    45   24   27 1
    46   25   26 ar
    47   25   43 1
    48   26   44 1
    49   27   45 1
@<TRIPOS>MOLECULE
CHEMBL215428__2
   45    49     0     0     0
SMALL
USER_CHARGES

@<TRIPOS>ATOM
      1 C1         -0.0187    1.5258    0.0104 C.3       1 <0>        -0.1573
      2 C2          0.0021   -0.0041    0.0020 C.3       1 <0>        -0.1044
      3 C3          0.7182   -0.4975   -1.2568 C.3       1 <0>        -0.0366
      4 C4          0.0206   -0.0060   -2.5271 C.3       1 <0>        -0.1072
      5 C5         -1.3871   -0.6072   -2.5811 C.3       1 <0>        -0.1647
      6 C6         -1.3200   -2.1112   -2.5478 C.2       1 <0>         0.3952
      7 O1         -2.1994   -2.7670   -3.0677 O.2       1 <0>        -0.4475
      8 C7         -0.1967   -2.7874   -1.8894 C.2       1 <0>        -0.1459
      9 C8          0.7673   -2.0158   -1.3155 C.2       1 <0>         0.0264
     10 C9          2.0276   -2.4163   -0.6882 C.ar      1 <0>        -0.1008
     11 C10         2.4290   -3.6417   -0.1176 C.ar      1 <0>        -0.0243
     12 C11         3.6925   -3.8045    0.3586 C.ar      1 <0>        -0.1300
     13 C12         4.6071   -2.7545    0.2973 C.ar      1 <0>         0.1116
     14 C13         4.2195   -1.5100   -0.2330 C.ar      1 <0>        -0.0127
     15 C14         2.9177   -1.3413   -0.7118 C.ar      1 <0>         0.0212
     16 C15         2.2086   -0.1143   -1.2469 C.3       1 <0>        -0.0774
     17 N1          5.2892   -0.6822   -0.1569 N.2       1 <0>        -0.2046
     18 N2          6.2911   -1.3000    0.3620 N.2       1 <0>         0.0021
     19 N3          5.9213   -2.6173    0.6692 N.pl3     1 <0>        -0.4953
     20 H1          6.4847   -3.2990    1.0676 H         1 <0>         0.4507
     21 C16        -0.1131   -4.2665   -1.8510 C.ar      1 <0>        -0.0420
     22 C17         0.9241   -4.9253   -2.5109 C.ar      1 <0>        -0.0860
     23 C18         0.9988   -6.3017   -2.4732 C.ar      1 <0>        -0.1452
     24 C19         0.0428   -7.0316   -1.7796 C.ar      1 <0>         0.1087
     25 C20        -0.9912   -6.3790   -1.1220 C.ar      1 <0>        -0.1434
     26 C21        -1.0682   -5.0025   -1.1501 C.ar      1 <0>        -0.0775
     27 O2          0.1192   -8.3879   -1.7448 O.3       1 <0>        -0.4988
     28 H2          1.0039    1.9031    0.0027 H         1 <0>         0.0605
     29 H3         -0.5459    1.8868   -0.8726 H         1 <0>         0.0620
     30 H4         -0.5289    1.8773    0.9072 H         1 <0>         0.0605
     31 H5          0.5293   -0.3651    0.8851 H         1 <0>         0.0705
     32 H6         -1.0205   -0.3814    0.0098 H         1 <0>         0.0719
     33 H7         -0.0471    1.0817   -2.5092 H         1 <0>         0.0902
     34 H8          0.5877   -0.3245   -3.4018 H         1 <0>         0.0770
     35 H9         -1.9623   -0.2538   -1.7253 H         1 <0>         0.1065
     36 H10        -1.8790   -0.2893   -3.5004 H         1 <0>         0.1009
     37 H11         1.7258   -4.4593   -0.0579 H         1 <0>         0.1402
     38 H12         3.9882   -4.7511    0.7863 H         1 <0>         0.1396
     39 H13         2.5495    0.1109   -2.2574 H         1 <0>         0.1008
     40 H14         2.3770    0.7386   -0.5894 H         1 <0>         0.1010
     41 H15         1.6676   -4.3581   -3.0512 H         1 <0>         0.1256
     42 H16         1.8017   -6.8125   -2.9840 H         1 <0>         0.1303
     43 H17        -1.7336   -6.9499   -0.5840 H         1 <0>         0.1313
     44 H18        -1.8699   -4.4952   -0.6340 H         1 <0>         0.1263
     45 H19         0.6357   -8.7339   -1.0042 H         1 <0>         0.3908
@<TRIPOS>BOND
     1    1    2 1
     2    1   28 1
     3    1   29 1
     4    1   30 1
     5    2    3 1
     6    2   31 1
     7    2   32 1
     8    3    9 1
     9    3   16 1
    10    3    4 1
    11    4    5 1
    12    4   33 1
    13    4   34 1
    14    5    6 1
    15    5   35 1
    16    5   36 1
    17    6    7 2
    18    6    8 1
    19    8    9 2
    20    8   21 1
    21    9   10 1
    22   10   15 ar
    23   10   11 ar
    24   11   12 ar
    25   11   37 1
    26   12   13 ar
    27   12   38 1
    28   13   19 1
    29   13   14 ar
    30   14   15 ar
    31   14   17 1
    32   15   16 1
    33   16   39 1
    34   16   40 1
    35   17   18 2
    36   18   19 1
    37   19   20 1
    38   21   26 ar
    39   21   22 ar
    40   22   23 ar
    41   22   41 1
    42   23   24 ar
    43   23   42 1
    44   24   25 ar
    45   24   27 1
    46   25   26 ar
    47   25   43 1
    48   26   44 1
    49   27   45 1
@<TRIPOS>MOLECULE
CHEMBL215428__3
   45    49     0     0     0
SMALL
USER_CHARGES

@<TRIPOS>ATOM
      1 C1          0.0810    1.5157    0.2475 C.3       1 <0>        -0.1566
      2 C2          0.1054   -0.0140    0.2295 C.3       1 <0>        -0.1046
      3 C3          0.6603   -0.4995   -1.1111 C.3       1 <0>        -0.0361
      4 C4          2.0792    0.0207   -1.3526 C.3       1 <0>        -0.1069
      5 C5          3.0075   -0.5612   -0.2823 C.3       1 <0>        -0.1648
      6 C6          2.9712   -2.0664   -0.3142 C.2       1 <0>         0.3958
      7 O1          3.9387   -2.7023    0.0509 O.2       1 <0>        -0.4484
      8 C7          1.7715   -2.7674   -0.7854 C.2       1 <0>        -0.1437
      9 C8          0.7070   -2.0170   -1.1836 C.2       1 <0>         0.0230
     10 C9         -0.5602   -2.4456   -1.7793 C.ar      1 <0>        -0.0653
     11 C10        -1.2293   -3.6934   -1.7166 C.ar      1 <0>        -0.0629
     12 C11        -2.3789   -3.9230   -2.3877 C.ar      1 <0>        -0.0674
     13 C12        -2.9489   -2.9044   -3.1761 C.ar      1 <0>         0.0440
     14 C13        -2.2887   -1.5912   -3.2299 C.ar      1 <0>         0.0341
     15 C14        -1.1100   -1.3888   -2.4980 C.ar      1 <0>        -0.0094
     16 C15        -0.2786   -0.1412   -2.2765 C.3       1 <0>        -0.0728
     17 N1         -3.0494   -0.8644   -4.0363 N.2       1 <0>        -0.2608
     18 N2         -4.0363   -1.5872   -4.4376 N.pl3     1 <0>        -0.1932
     19 N3         -4.0091   -2.7807   -3.9562 N.2       1 <0>        -0.2700
     20 H1         -4.7270   -1.2665   -5.0385 H         1 <0>         0.4746
     21 C16         1.7196   -4.2477   -0.8267 C.ar      1 <0>        -0.0424
     22 C17         1.6633   -4.9112   -2.0523 C.ar      1 <0>        -0.0837
     23 C18         1.6156   -6.2888   -2.0871 C.ar      1 <0>        -0.1442
     24 C19         1.6230   -7.0154   -0.9039 C.ar      1 <0>         0.1090
     25 C20         1.6785   -6.3581    0.3179 C.ar      1 <0>        -0.1436
     26 C21         1.7327   -4.9810    0.3598 C.ar      1 <0>        -0.0780
     27 O2          1.5754   -8.3729   -0.9418 O.3       1 <0>        -0.5001
     28 H2          1.0934    1.8968    0.1139 H         1 <0>         0.0617
     29 H3         -0.5535    1.8784   -0.5611 H         1 <0>         0.0594
     30 H4         -0.3143    1.8615    1.2026 H         1 <0>         0.0603
     31 H5          0.7399   -0.3768    1.0382 H         1 <0>         0.0720
     32 H6         -0.9070   -0.3952    0.3632 H         1 <0>         0.0712
     33 H7          2.4195   -0.2912   -2.3401 H         1 <0>         0.0767
     34 H8          2.0851    1.1088   -1.2889 H         1 <0>         0.0894
     35 H9          4.0268   -0.2220   -0.4671 H         1 <0>         0.1006
     36 H10         2.6861   -0.2144    0.6998 H         1 <0>         0.1064
     37 H11        -0.8072   -4.4845   -1.1145 H         1 <0>         0.1370
     38 H12        -2.8610   -4.8870   -2.3196 H         1 <0>         0.1422
     39 H13        -0.9184    0.6982   -2.0044 H         1 <0>         0.0963
     40 H14         0.2986    0.0943   -3.1706 H         1 <0>         0.0964
     41 H15         1.6568   -4.3466   -2.9730 H         1 <0>         0.1253
     42 H16         1.5720   -6.8032   -3.0357 H         1 <0>         0.1303
     43 H17         1.6834   -6.9263    1.2363 H         1 <0>         0.1310
     44 H18         1.7804   -4.4705    1.3104 H         1 <0>         0.1260
     45 H19         2.4442   -8.7961   -0.9769 H         1 <0>         0.3922
@<TRIPOS>BOND
     1    1    2 1
     2    1   28 1
     3    1   29 1
     4    1   30 1
     5    2    3 1
     6    2   31 1
     7    2   32 1
     8    3    9 1
     9    3   16 1
    10    3    4 1
    11    4    5 1
    12    4   33 1
    13    4   34 1
    14    5    6 1
    15    5   35 1
    16    5   36 1
    17    6    7 2
    18    6    8 1
    19    8    9 2
    20    8   21 1
    21    9   10 1
    22   10   15 ar
    23   10   11 ar
    24   11   12 ar
    25   11   37 1
    26   12   13 ar
    27   12   38 1
    28   13   14 ar
    29   13   19 2
    30   14   15 ar
    31   14   17 2
    32   15   16 1
    33   16   39 1
    34   16   40 1
    35   17   18 1
    36   18   20 1
    37   18   19 1
    38   21   26 ar
    39   21   22 ar
    40   22   23 ar
    41   22   41 1
    42   23   24 ar
    43   23   42 1
    44   24   25 ar
    45   24   27 1
    46   25   26 ar
    47   25   43 1
    48   26   44 1
    49   27   45 1
@<TRIPOS>MOLECULE
CHEMBL215428__4
   45    49     0     0     0
SMALL
USER_CHARGES

@<TRIPOS>ATOM
      1 C1         -0.0187    1.5258    0.0104 C.3       1 <0>        -0.1562
      2 C2          0.0021   -0.0041    0.0020 C.3       1 <0>        -0.1062
      3 C3          0.7421   -0.5109    1.2415 C.3       1 <0>        -0.0332
      4 C4          0.0688   -0.0330    2.5300 C.3       1 <0>        -0.1071
      5 C5         -1.3377   -0.6348    2.6046 C.3       1 <0>        -0.1648
      6 C6         -1.2713   -2.1384    2.5548 C.2       1 <0>         0.3939
      7 O1         -2.1403   -2.7996    3.0849 O.2       1 <0>        -0.4436
      8 C7         -0.1605   -2.8076    1.8679 C.2       1 <0>        -0.1338
      9 C8          0.7919   -2.0296    1.2827 C.2       1 <0>         0.0141
     10 C9          2.0384   -2.4237    0.6259 C.ar      1 <0>        -0.0457
     11 C10         2.4269   -3.6427    0.0328 C.ar      1 <0>        -0.0904
     12 C11         3.6782   -3.8030   -0.4717 C.ar      1 <0>        -0.0529
     13 C12         4.5980   -2.7491   -0.4140 C.ar      1 <0>         0.0276
     14 C13         4.2121   -1.5129    0.1417 C.ar      1 <0>         0.0372
     15 C14         2.9317   -1.3473    0.6444 C.ar      1 <0>        -0.0572
     16 C15         2.2317   -0.1270    1.2073 C.3       1 <0>        -0.0755
     17 N1          5.3206   -0.7076    0.0341 N.pl3     1 <0>        -0.4145
     18 N2          6.2624   -1.3947   -0.5140 N.2       1 <0>        -0.0072
     19 N3          5.8820   -2.5921   -0.7898 N.2       1 <0>        -0.2480
     20 H1          5.3828    0.2171    0.3203 H         1 <0>         0.4535
     21 C16        -0.0775   -4.2860    1.8129 C.ar      1 <0>        -0.0447
     22 C17        -0.1737   -4.9464    0.5880 C.ar      1 <0>        -0.0918
     23 C18        -0.0955   -6.3222    0.5405 C.ar      1 <0>        -0.1461
     24 C19         0.0783   -7.0502    1.7100 C.ar      1 <0>         0.1127
     25 C20         0.1740   -6.3960    2.9309 C.ar      1 <0>        -0.1420
     26 C21         0.1029   -5.0201    2.9851 C.ar      1 <0>        -0.0743
     27 O2          0.1545   -8.4059    1.6595 O.3       1 <0>        -0.4987
     28 H2          1.0039    1.9031    0.0027 H         1 <0>         0.0575
     29 H3         -0.5459    1.8868   -0.8726 H         1 <0>         0.0614
     30 H4         -0.5289    1.8773    0.9072 H         1 <0>         0.0624
     31 H5         -1.0205   -0.3814    0.0098 H         1 <0>         0.0734
     32 H6          0.5123   -0.3556   -0.8948 H         1 <0>         0.0713
     33 H7          0.6524   -0.3605    3.3903 H         1 <0>         0.0767
     34 H8          0.0009    1.0549    2.5249 H         1 <0>         0.0894
     35 H9         -1.8121   -0.3263    3.5362 H         1 <0>         0.1019
     36 H10        -1.9290   -0.2728    1.7634 H         1 <0>         0.1069
     37 H11         1.7212   -4.4585   -0.0213 H         1 <0>         0.1477
     38 H12         3.9635   -4.7442   -0.9181 H         1 <0>         0.1454
     39 H13         2.3871    0.7336    0.5566 H         1 <0>         0.0925
     40 H14         2.5919    0.0869    2.2136 H         1 <0>         0.0947
     41 H15        -0.3097   -4.3809   -0.3219 H         1 <0>         0.1300
     42 H16        -0.1700   -6.8342   -0.4075 H         1 <0>         0.1337
     43 H17         0.3089   -6.9653    3.8388 H         1 <0>         0.1317
     44 H18         0.1823   -4.5116    3.9346 H         1 <0>         0.1256
     45 H19         1.0530   -8.7455    1.5476 H         1 <0>         0.3925
@<TRIPOS>BOND
     1    1    2 1
     2    1   28 1
     3    1   29 1
     4    1   30 1
     5    2    3 1
     6    2   31 1
     7    2   32 1
     8    3    9 1
     9    3   16 1
    10    3    4 1
    11    4    5 1
    12    4   33 1
    13    4   34 1
    14    5    6 1
    15    5   35 1
    16    5   36 1
    17    6    7 2
    18    6    8 1
    19    8    9 2
    20    8   21 1
    21    9   10 1
    22   10   15 ar
    23   10   11 ar
    24   11   12 ar
    25   11   37 1
    26   12   13 ar
    27   12   38 1
    28   13   14 ar
    29   13   19 1
    30   14   15 ar
    31   14   17 1
    32   15   16 1
    33   16   39 1
    34   16   40 1
    35   17   20 1
    36   17   18 1
    37   18   19 2
    38   21   26 ar
    39   21   22 ar
    40   22   23 ar
    41   22   41 1
    42   23   24 ar
    43   23   42 1
    44   24   25 ar
    45   24   27 1
    46   25   26 ar
    47   25   43 1
    48   26   44 1
    49   27   45 1
@<TRIPOS>MOLECULE
CHEMBL215428__5
   45    49     0     0     0
SMALL
USER_CHARGES

@<TRIPOS>ATOM
      1 C1         -0.0187    1.5258    0.0104 C.3       1 <0>        -0.1572
      2 C2          0.0021   -0.0041    0.0020 C.3       1 <0>        -0.1049
      3 C3          0.7182   -0.4975   -1.2568 C.3       1 <0>        -0.0366
      4 C4          2.1583    0.0163   -1.3197 C.3       1 <0>        -0.1071
      5 C5          2.9407   -0.5619   -0.1367 C.3       1 <0>        -0.1647
      6 C6          2.9014   -2.0671   -0.1635 C.2       1 <0>         0.3955
      7 O1          3.8109   -2.7042    0.3270 O.2       1 <0>        -0.4476
      8 C7          1.7685   -2.7669   -0.7795 C.2       1 <0>        -0.1472
      9 C8          0.7673   -2.0158   -1.3155 C.2       1 <0>         0.0265
     10 C9         -0.4141   -2.4419   -2.0673 C.ar      1 <0>        -0.1008
     11 C10        -1.0905   -3.6785   -2.1055 C.ar      1 <0>        -0.0369
     12 C11        -2.1482   -3.8654   -2.9398 C.ar      1 <0>        -0.1300
     13 C12        -2.5842   -2.8297   -3.7644 C.ar      1 <0>         0.1111
     14 C13        -1.9494   -1.5747   -3.7177 C.ar      1 <0>        -0.0129
     15 C14        -0.8705   -1.3809   -2.8513 C.ar      1 <0>         0.0215
     16 C15        -0.0656   -0.1380   -2.5314 C.3       1 <0>        -0.0772
     17 N1         -2.5796   -0.7647   -4.6022 N.2       1 <0>        -0.2046
     18 N2         -3.5314   -1.4029   -5.1865 N.2       1 <0>         0.0021
     19 N3         -3.5831   -2.7167   -4.6991 N.pl3     1 <0>        -0.4954
     20 H1         -4.2038   -3.4110   -4.9702 H         1 <0>         0.4507
     21 C16         1.7154   -4.2473   -0.8171 C.ar      1 <0>        -0.0389
     22 C17         0.7188   -4.9290   -0.1190 C.ar      1 <0>        -0.0952
     23 C18         0.6724   -6.3066   -0.1561 C.ar      1 <0>        -0.1467
     24 C19         1.6166   -7.0152   -0.8870 C.ar      1 <0>         0.1097
     25 C20         2.6103   -6.3398   -1.5828 C.ar      1 <0>        -0.1415
     26 C21         2.6586   -4.9620   -1.5554 C.ar      1 <0>        -0.0752
     27 O2          1.5683   -8.3728   -0.9211 O.3       1 <0>        -0.4985
     28 H2          1.0039    1.9031    0.0027 H         1 <0>         0.0621
     29 H3         -0.5459    1.8868   -0.8726 H         1 <0>         0.0606
     30 H4         -0.5289    1.8773    0.9072 H         1 <0>         0.0606
     31 H5          0.5293   -0.3651    0.8851 H         1 <0>         0.0721
     32 H6         -1.0205   -0.3814    0.0098 H         1 <0>         0.0707
     33 H7          2.6197   -0.3032   -2.2541 H         1 <0>         0.0770
     34 H8          2.1607    1.1048   -1.2622 H         1 <0>         0.0902
     35 H9          3.9768   -0.2281   -0.1930 H         1 <0>         0.1012
     36 H10         2.4991   -0.2071    0.7946 H         1 <0>         0.1064
     37 H11        -0.7655   -4.4854   -1.4654 H         1 <0>         0.1486
     38 H12        -2.6521   -4.8203   -2.9637 H         1 <0>         0.1397
     39 H13        -0.7291    0.7062   -2.3438 H         1 <0>         0.1011
     40 H14         0.6201    0.0908   -3.3471 H         1 <0>         0.1007
     41 H15        -0.0155   -4.3785    0.4504 H         1 <0>         0.1298
     42 H16        -0.0990   -6.8351    0.3843 H         1 <0>         0.1326
     43 H17         3.3436   -6.8940   -2.1498 H         1 <0>         0.1314
     44 H18         3.4287   -4.4370   -2.1010 H         1 <0>         0.1261
     45 H19         1.0312   -8.7292   -1.6420 H         1 <0>         0.3912
@<TRIPOS>BOND
     1    1    2 1
     2    1   28 1
     3    1   29 1
     4    1   30 1
     5    2    3 1
     6    2   31 1
     7    2   32 1
     8    3    9 1
     9    3   16 1
    10    3    4 1
    11    4    5 1
    12    4   33 1
    13    4   34 1
    14    5    6 1
    15    5   35 1
    16    5   36 1
    17    6    7 2
    18    6    8 1
    19    8    9 2
    20    8   21 1
    21    9   10 1
    22   10   15 ar
    23   10   11 ar
    24   11   12 ar
    25   11   37 1
    26   12   13 ar
    27   12   38 1
    28   13   19 1
    29   13   14 ar
    30   14   15 ar
    31   14   17 1
    32   15   16 1
    33   16   39 1
    34   16   40 1
    35   17   18 2
    36   18   19 1
    37   19   20 1
    38   21   26 ar
    39   21   22 ar
    40   22   23 ar
    41   22   41 1
    42   23   24 ar
    43   23   42 1
    44   24   25 ar
    45   24   27 1
    46   25   26 ar
    47   25   43 1
    48   26   44 1
    49   27   45 1
@<TRIPOS>MOLECULE
CHEMBL187311
   29    31     0     0     0
SMALL
USER_CHARGES

@<TRIPOS>ATOM
      1 C1         -0.3154    1.4830    0.0480 C.3       1 <0>        -0.1239
      2 C2         -0.1406   -0.0136    0.0201 C.ar      1 <0>        -0.0222
      3 C3         -0.2405   -0.6978   -1.1719 C.ar      1 <0>        -0.1499
      4 C4         -0.0800   -2.0772   -1.1986 C.ar      1 <0>         0.1428
      5 C5          0.1820   -2.7728   -0.0246 C.ar      1 <0>        -0.1542
      6 C6          0.2838   -2.0961    1.1710 C.ar      1 <0>        -0.0412
      7 C7          0.1284   -0.7082    1.2013 C.ar      1 <0>        -0.0518
      8 C8          0.2423    0.0219    2.4801 C.2       1 <0>         0.3122
      9 N1         -0.3370   -0.3309    3.6004 N.2       1 <0>        -0.4607
     10 C9         -0.0106    0.5695    4.5632 C.ar      1 <0>         0.0502
     11 C10        -0.3348    0.6926    5.9167 C.ar      1 <0>        -0.0726
     12 C11         0.1690    1.7508    6.6476 C.ar      1 <0>         0.1171
     13 C12         0.9956    2.6922    6.0420 C.ar      1 <0>        -0.0861
     14 C13         1.3213    2.5798    4.7058 C.ar      1 <0>        -0.0521
     15 C14         0.8242    1.5224    3.9583 C.ar      1 <0>         0.0218
     16 O1          0.9616    1.1446    2.6667 O.3       1 <0>        -0.1916
     17 Br1         2.4451    3.8661    3.8943 Br        1 <0>        -0.0192
     18 O2         -0.1446    1.8734    7.9649 O.3       1 <0>        -0.4844
     19 O3         -0.1801   -2.7480   -2.3751 O.3       1 <0>        -0.4957
     20 H1          0.6612    1.9640   -0.0078 H         1 <0>         0.0847
     21 H2         -0.9226    1.7938   -0.8022 H         1 <0>         0.0789
     22 H3         -0.8112    1.7737    0.9742 H         1 <0>         0.0667
     23 H4         -0.4441   -0.1607   -2.0865 H         1 <0>         0.1411
     24 H5          0.3058   -3.8454   -0.0495 H         1 <0>         0.1419
     25 H6          0.4875   -2.6374    2.0831 H         1 <0>         0.1401
     26 H7         -0.9767   -0.0362    6.3892 H         1 <0>         0.1523
     27 H8          1.3845    3.5165    6.6214 H         1 <0>         0.1587
     28 H9          0.4721    1.4246    8.5594 H         1 <0>         0.3988
     29 H10         0.6582   -2.8388   -2.8485 H         1 <0>         0.3983
@<TRIPOS>BOND
     1    1    2 1
     2    1   20 1
     3    1   21 1
     4    1   22 1
     5    2    7 ar
     6    2    3 ar
     7    3    4 ar
     8    3   23 1
     9    4    5 ar
    10    4   19 1
    11    5    6 ar
    12    5   24 1
    13    6    7 ar
    14    6   25 1
    15    7    8 1
    16    8   16 1
    17    8    9 2
    18    9   10 1
    19   10   15 ar
    20   10   11 ar
    21   11   12 ar
    22   11   26 1
    23   12   13 ar
    24   12   18 1
    25   13   14 ar
    26   13   27 1
    27   14   15 ar
    28   14   17 1
    29   15   16 1
    30   18   28 1
    31   19   29 1
@<TRIPOS>MOLECULE
CHEMBL19687
   63    65     0     0     0
SMALL
USER_CHARGES

@<TRIPOS>ATOM
      1 C1         -0.1603    7.8081    4.9492 C.3       1 <0>         0.0694
      2 N1         -0.1615    7.3411    3.5606 N.pl3     1 <0>        -0.4015
      3 C2         -0.2909    8.1281    2.4607 C.2       1 <0>        -0.0086
      4 C3         -0.2455    7.3422    1.3529 C.2       1 <0>         0.0527
      5 C4         -0.0818    6.0155    1.7765 C.2       1 <0>        -0.1339
      6 C5         -0.0259    6.0335    3.1542 C.2       1 <0>        -0.0483
      7 C6          0.1439    4.8686    4.0288 C.2       1 <0>         0.5987
      8 O1          0.0870    5.0015    5.2374 O.2       1 <0>        -0.5366
      9 N2          0.3630    3.6509    3.4943 N.am      1 <0>        -0.6350
     10 C7          0.4151    2.5172    4.3253 C.2       1 <0>         0.0662
     11 C8          0.2514    2.5046    5.7179 C.2       1 <0>        -0.1311
     12 C9          0.3769    1.1944    6.1294 C.2       1 <0>        -0.0510
     13 N3          0.6117    0.4263    5.0121 N.pl3     1 <0>        -0.4016
     14 C10         0.6273    1.2368    3.9215 C.2       1 <0>        -0.0038
     15 C11         0.8071   -1.0255    4.9997 C.3       1 <0>         0.0683
     16 C12         0.2782    0.7074    7.5092 C.2       1 <0>         0.6029
     17 O2          0.3138   -0.4879    7.7368 O.2       1 <0>        -0.5424
     18 N4          0.1482    1.5833    8.5252 N.am      1 <0>        -0.6350
     19 C13         0.1651    1.1253    9.8551 C.2       1 <0>         0.0657
     20 C14         0.3152   -0.2060   10.2691 C.2       1 <0>        -0.1297
     21 C15         0.2753   -0.2091   11.6476 C.2       1 <0>        -0.0606
     22 N5          0.1047    1.0915   12.0634 N.pl3     1 <0>        -0.3989
     23 C16         0.0448    1.8946   10.9692 C.2       1 <0>         0.0017
     24 C17         0.0092    1.5371   13.4557 C.3       1 <0>         0.0616
     25 C18         0.3926   -1.3865   12.5141 C.2       1 <0>         0.6043
     26 O3          0.2512   -1.2728   13.7175 O.2       1 <0>        -0.5386
     27 N6          0.6570   -2.5943   11.9778 N.am      1 <0>        -0.7266
     28 C19         0.6652   -3.7874   12.8279 C.3       1 <0>         0.1260
     29 C20         0.9901   -5.0172   11.9777 C.3       1 <0>        -0.1445
     30 C21         0.9985   -6.2445   12.8522 C.cat     1 <0>         0.5532
     31 N7          2.1180   -6.6293   13.4403 N.pl3     1 <0>        -0.7510
     32 N8         -0.1135   -6.9361   13.0312 N.pl3     1 <0>        -0.7508
     33 N9         -0.3454    7.7810    0.0198 N.am      1 <0>        -0.6546
     34 C22        -0.2845    6.8898   -0.9894 C.2       1 <0>         0.4924
     35 O4         -0.1436    5.7093   -0.7485 O.2       1 <0>        -0.5409
     36 H1          0.8672    7.9545    5.2824 H         1 <0>         0.0779
     37 H2         -0.7017    8.7518    5.0156 H         1 <0>         0.0857
     38 H3         -0.6454    7.0656    5.5827 H         1 <0>         0.1024
     39 H4         -0.4105    9.2015    2.4659 H         1 <0>         0.1742
     40 H5         -0.0089    5.1440    1.1427 H         1 <0>         0.1688
     41 H6          0.4847    3.5563    2.5367 H         1 <0>         0.4161
     42 H7          0.0631    3.3602    6.3495 H         1 <0>         0.1694
     43 H8          0.7850    0.9167    2.9022 H         1 <0>         0.1768
     44 H9         -0.1430   -1.5182    4.7927 H         1 <0>         0.0776
     45 H10         1.5288   -1.2884    4.2263 H         1 <0>         0.0839
     46 H11         1.1807   -1.3502    5.9708 H         1 <0>         0.1041
     47 H12         0.0429    2.5295    8.3395 H         1 <0>         0.4172
     48 H13         0.4388   -1.0670    9.6289 H         1 <0>         0.1689
     49 H14        -0.0803    2.9672   10.9823 H         1 <0>         0.1781
     50 H15         0.9928    1.8513   13.8049 H         1 <0>         0.0795
     51 H16        -0.6847    2.3751   13.5223 H         1 <0>         0.0878
     52 H17        -0.3515    0.7166   14.0759 H         1 <0>         0.1080
     53 H18         0.8419   -2.6736   11.0289 H         1 <0>         0.4126
     54 H19         1.4199   -3.6739   13.6061 H         1 <0>         0.0860
     55 H20        -0.3151   -3.9124   13.2880 H         1 <0>         0.0849
     56 H21         0.2354   -5.1307   11.1996 H         1 <0>         0.1391
     57 H22         1.9704   -4.8922   11.5177 H         1 <0>         0.1387
     58 H23         2.9341   -6.1217   13.3090 H         1 <0>         0.4500
     59 H24        -0.9350   -6.6537   12.5996 H         1 <0>         0.4501
     60 H25        -0.1081   -7.7260   13.5941 H         1 <0>         0.4329
     61 H26        -0.4581    8.7250   -0.1730 H         1 <0>         0.4128
     62 H27        -0.3612    7.2267   -2.0127 H         1 <0>         0.1456
     63 H28         2.1234   -7.4192   14.0032 H         1 <0>         0.4329
@<TRIPOS>BOND
     1    1    2 1
     2    1   36 1
     3    1   37 1
     4    1   38 1
     5    2    6 1
     6    2    3 1
     7    3    4 2
     8    3   39 1
     9    4    5 1
    10    4   33 1
    11    5    6 2
    12    5   40 1
    13    6    7 1
    14    7    8 2
    15    7    9 am
    16    9   10 1
    17    9   41 1
    18   10   14 2
    19   10   11 1
    20   11   12 2
    21   11   42 1
    22   12   13 1
    23   12   16 1
    24   13   14 1
    25   13   15 1
    26   14   43 1
    27   15   44 1
    28   15   45 1
    29   15   46 1
    30   16   17 2
    31   16   18 am
    32   18   19 1
    33   18   47 1
    34   19   23 2
    35   19   20 1
    36   20   21 2
    37   20   48 1
    38   21   22 1
    39   21   25 1
    40   22   23 1
    41   22   24 1
    42   23   49 1
    43   24   50 1
    44   24   51 1
    45   24   52 1
    46   25   26 2
    47   25   27 am
    48   27   28 1
    49   27   53 1
    50   28   29 1
    51   28   54 1
    52   28   55 1
    53   29   30 1
    54   29   56 1
    55   29   57 1
    56   30   31 2
    57   30   32 1
    58   31   58 1
    59   31   63 1
    60   32   59 1
    61   32   60 1
    62   33   34 am
    63   33   61 1
    64   34   35 2
    65   34   62 1
@<TRIPOS>MOLECULE
CHEMBL214200
   47    51     0     0     0
SMALL
USER_CHARGES

@<TRIPOS>ATOM
      1 C1         -0.0187    1.5258    0.0104 C.3       1 <0>        -0.1542
      2 C2          0.0021   -0.0041    0.0020 C.3       1 <0>        -0.1256
      3 C3         -1.4333   -0.5336    0.0129 C.3       1 <0>        -0.1226
      4 C4         -1.4126   -2.0635    0.0045 C.3       1 <0>        -0.1015
      5 C5         -2.8479   -2.5931    0.0153 C.3       1 <0>        -0.0360
      6 C6         -3.6128   -2.1165    1.2522 C.3       1 <0>        -0.1086
      7 C7         -2.9426   -2.6939    2.5023 C.3       1 <0>        -0.1613
      8 C8         -2.9161   -4.1983    2.4422 C.2       1 <0>         0.4006
      9 O1         -2.9174   -4.8449    3.4693 O.2       1 <0>        -0.4451
     10 C9         -2.8881   -4.8862    1.1438 C.2       1 <0>        -0.1231
     11 C10        -2.8868   -4.1126    0.0075 C.2       1 <0>         0.0445
     12 C11        -2.9568   -4.5218   -1.3955 C.ar      1 <0>        -0.0716
     13 C12        -2.6119   -5.7501   -2.0134 C.ar      1 <0>        -0.0583
     14 C13        -2.8011   -5.9644   -3.3335 C.ar      1 <0>        -0.0672
     15 C14        -3.3534   -4.9495   -4.1393 C.ar      1 <0>         0.0460
     16 C15        -3.6895   -3.6558   -3.5255 C.ar      1 <0>         0.0325
     17 C16        -3.4531   -3.4673   -2.1565 C.ar      1 <0>        -0.0021
     18 C17        -3.5937   -2.2370   -1.2828 C.3       1 <0>        -0.0740
     19 N1         -4.1786   -2.9282   -4.5198 N.2       1 <0>        -0.2581
     20 N2         -4.1622   -3.6337   -5.5965 N.pl3     1 <0>        -0.1919
     21 N3         -3.6880   -4.8160   -5.4113 N.2       1 <0>        -0.2698
     22 H1         -4.4744   -3.3092   -6.4556 H         1 <0>         0.4751
     23 C18        -2.8632   -6.3589    1.0625 C.2       1 <0>         0.0336
     24 C19        -1.8588   -7.1668    1.5014 C.2       1 <0>        -0.1780
     25 C20        -2.2531   -8.4907    1.2249 C.2       1 <0>        -0.2106
     26 C21        -3.4645   -8.4279    0.6376 C.2       1 <0>        -0.0381
     27 O2         -3.8326   -7.1389    0.5463 O.3       1 <0>        -0.1672
     28 H2          1.0039    1.9031    0.0027 H         1 <0>         0.0539
     29 H3         -0.5459    1.8868   -0.8726 H         1 <0>         0.0536
     30 H4         -0.5289    1.8773    0.9072 H         1 <0>         0.0546
     31 H5          0.5123   -0.3556   -0.8948 H         1 <0>         0.0612
     32 H6          0.5293   -0.3651    0.8851 H         1 <0>         0.0625
     33 H7         -1.9435   -0.1821    0.9097 H         1 <0>         0.0702
     34 H8         -1.9605   -0.1726   -0.8702 H         1 <0>         0.0675
     35 H9         -0.9024   -2.4150   -0.8923 H         1 <0>         0.0731
     36 H10        -0.8854   -2.4246    0.8875 H         1 <0>         0.0745
     37 H11        -3.5924   -1.0277    1.2970 H         1 <0>         0.0926
     38 H12        -4.6451   -2.4623    1.1988 H         1 <0>         0.0783
     39 H13        -1.9213   -2.3188    2.5683 H         1 <0>         0.1090
     40 H14        -3.4982   -2.3793    3.3858 H         1 <0>         0.1039
     41 H15        -2.1849   -6.5380   -1.4107 H         1 <0>         0.1347
     42 H16        -2.5286   -6.9134   -3.7712 H         1 <0>         0.1432
     43 H17        -4.6448   -2.0372   -1.0744 H         1 <0>         0.0990
     44 H18        -3.1303   -1.3752   -1.7629 H         1 <0>         0.0992
     45 H19        -0.9379   -6.8532    1.9704 H         1 <0>         0.1474
     46 H20        -1.6907   -9.3867    1.4422 H         1 <0>         0.1506
     47 H21        -4.0453   -9.2737    0.3005 H         1 <0>         0.2038
@<TRIPOS>BOND
     1    1    2 1
     2    1   28 1
     3    1   29 1
     4    1   30 1
     5    2    3 1
     6    2   31 1
     7    2   32 1
     8    3    4 1
     9    3   33 1
    10    3   34 1
    11    4    5 1
    12    4   35 1
    13    4   36 1
    14    5   11 1
    15    5   18 1
    16    5    6 1
    17    6    7 1
    18    6   37 1
    19    6   38 1
    20    7    8 1
    21    7   39 1
    22    7   40 1
    23    8    9 2
    24    8   10 1
    25   10   11 2
    26   10   23 1
    27   11   12 1
    28   12   17 ar
    29   12   13 ar
    30   13   14 ar
    31   13   41 1
    32   14   15 ar
    33   14   42 1
    34   15   16 ar
    35   15   21 2
    36   16   17 ar
    37   16   19 2
    38   17   18 1
    39   18   43 1
    40   18   44 1
    41   19   20 1
    42   20   22 1
    43   20   21 1
    44   23   27 1
    45   23   24 2
    46   24   25 1
    47   24   45 1
    48   25   26 2
    49   25   46 1
    50   26   27 1
    51   26   47 1
@<TRIPOS>MOLECULE
CHEMBL214200__1
   47    51     0     0     0
SMALL
USER_CHARGES

@<TRIPOS>ATOM
      1 C1         -0.0187    1.5258    0.0104 C.3       1 <0>        -0.1543
      2 C2          0.0021   -0.0041    0.0020 C.3       1 <0>        -0.1261
      3 C3         -1.4333   -0.5336    0.0129 C.3       1 <0>        -0.1217
      4 C4         -1.4126   -2.0635    0.0045 C.3       1 <0>        -0.1028
      5 C5         -2.8479   -2.5931    0.0153 C.3       1 <0>        -0.0332
      6 C6         -3.6113   -2.1171    1.2532 C.3       1 <0>        -0.1089
      7 C7         -2.9375   -2.6925    2.5023 C.3       1 <0>        -0.1614
      8 C8         -2.9083   -4.1969    2.4426 C.2       1 <0>         0.3993
      9 O1         -2.9058   -4.8430    3.4700 O.2       1 <0>        -0.4418
     10 C9         -2.8833   -4.8855    1.1442 C.2       1 <0>        -0.1138
     11 C10        -2.8853   -4.1129    0.0075 C.2       1 <0>         0.0377
     12 C11        -2.9588   -4.5214   -1.3942 C.ar      1 <0>        -0.0530
     13 C12        -2.6310   -5.7413   -2.0219 C.ar      1 <0>        -0.0718
     14 C13        -2.8417   -5.9171   -3.3525 C.ar      1 <0>        -0.0527
     15 C14        -3.3830   -4.8791   -4.1204 C.ar      1 <0>         0.0318
     16 C15        -3.6802   -3.6418   -3.5147 C.ar      1 <0>         0.0356
     17 C16        -3.4529   -3.4597   -2.1603 C.ar      1 <0>        -0.0514
     18 C17        -3.5937   -2.2331   -1.2816 C.3       1 <0>        -0.0765
     19 N1         -4.1730   -2.8540   -4.5273 N.pl3     1 <0>        -0.4132
     20 N2         -4.1783   -3.5515   -5.6103 N.2       1 <0>        -0.0053
     21 N3         -3.7262   -4.7400   -5.4155 N.2       1 <0>        -0.2477
     22 H1         -4.4663   -1.9334   -4.4414 H         1 <0>         0.4538
     23 C18        -2.8570   -6.3582    1.0638 C.2       1 <0>         0.0285
     24 C19        -1.8505   -7.1647    1.5004 C.2       1 <0>        -0.1753
     25 C20        -2.2441   -8.4892    1.2259 C.2       1 <0>        -0.2108
     26 C21        -3.4574   -8.4281    0.6421 C.2       1 <0>        -0.0358
     27 O2         -3.8271   -7.1396    0.5511 O.3       1 <0>        -0.1671
     28 H2          1.0039    1.9031    0.0027 H         1 <0>         0.0547
     29 H3         -0.5459    1.8868   -0.8726 H         1 <0>         0.0531
     30 H4         -0.5289    1.8773    0.9072 H         1 <0>         0.0548
     31 H5          0.5123   -0.3556   -0.8948 H         1 <0>         0.0615
     32 H6          0.5293   -0.3651    0.8851 H         1 <0>         0.0632
     33 H7         -1.9435   -0.1821    0.9097 H         1 <0>         0.0706
     34 H8         -1.9605   -0.1726   -0.8702 H         1 <0>         0.0655
     35 H9         -0.9024   -2.4150   -0.8923 H         1 <0>         0.0732
     36 H10        -0.8854   -2.4246    0.8875 H         1 <0>         0.0754
     37 H11        -3.5928   -1.0281    1.2972 H         1 <0>         0.0925
     38 H12        -4.6431   -2.4647    1.2020 H         1 <0>         0.0782
     39 H13        -1.9168   -2.3154    2.5661 H         1 <0>         0.1095
     40 H14        -3.4919   -2.3785    3.3867 H         1 <0>         0.1048
     41 H15        -2.2072   -6.5449   -1.4380 H         1 <0>         0.1372
     42 H16        -2.5909   -6.8586   -3.8185 H         1 <0>         0.1468
     43 H17        -4.6449   -2.0346   -1.0725 H         1 <0>         0.0971
     44 H18        -3.1308   -1.3692   -1.7585 H         1 <0>         0.0952
     45 H19        -0.9286   -6.8498    1.9665 H         1 <0>         0.1478
     46 H20        -1.6800   -9.3845    1.4420 H         1 <0>         0.1515
     47 H21        -4.0380   -9.2748    0.3070 H         1 <0>         0.2049
@<TRIPOS>BOND
     1    1    2 1
     2    1   28 1
     3    1   29 1
     4    1   30 1
     5    2    3 1
     6    2   31 1
     7    2   32 1
     8    3    4 1
     9    3   33 1
    10    3   34 1
    11    4    5 1
    12    4   35 1
    13    4   36 1
    14    5   11 1
    15    5   18 1
    16    5    6 1
    17    6    7 1
    18    6   37 1
    19    6   38 1
    20    7    8 1
    21    7   39 1
    22    7   40 1
    23    8    9 2
    24    8   10 1
    25   10   11 2
    26   10   23 1
    27   11   12 1
    28   12   17 ar
    29   12   13 ar
    30   13   14 ar
    31   13   41 1
    32   14   15 ar
    33   14   42 1
    34   15   16 ar
    35   15   21 1
    36   16   17 ar
    37   16   19 1
    38   17   18 1
    39   18   43 1
    40   18   44 1
    41   19   22 1
    42   19   20 1
    43   20   21 2
    44   23   27 1
    45   23   24 2
    46   24   25 1
    47   24   45 1
    48   25   26 2
    49   25   46 1
    50   26   27 1
    51   26   47 1
@<TRIPOS>MOLECULE
CHEMBL214200__2
   47    51     0     0     0
SMALL
USER_CHARGES

@<TRIPOS>ATOM
      1 C1         -0.0187    1.5258    0.0104 C.3       1 <0>        -0.1544
      2 C2          0.0021   -0.0041    0.0020 C.3       1 <0>        -0.1254
      3 C3         -1.4333   -0.5336    0.0129 C.3       1 <0>        -0.1232
      4 C4         -1.4126   -2.0635    0.0045 C.3       1 <0>        -0.1015
      5 C5         -2.8479   -2.5931    0.0153 C.3       1 <0>        -0.0365
      6 C6         -3.6114   -2.1173    1.2532 C.3       1 <0>        -0.1088
      7 C7         -2.9375   -2.6928    2.5022 C.3       1 <0>        -0.1613
      8 C8         -2.9075   -4.1972    2.4420 C.2       1 <0>         0.4009
      9 O1         -2.9041   -4.8436    3.4693 O.2       1 <0>        -0.4457
     10 C9         -2.8829   -4.8855    1.1438 C.2       1 <0>        -0.1272
     11 C10        -2.8855   -4.1130    0.0075 C.2       1 <0>         0.0499
     12 C11        -2.9607   -4.5211   -1.3950 C.ar      1 <0>        -0.1076
     13 C12        -2.6355   -5.7411   -2.0233 C.ar      1 <0>        -0.0184
     14 C13        -2.8496   -5.9142   -3.3552 C.ar      1 <0>        -0.1293
     15 C14        -3.3859   -4.8804   -4.1210 C.ar      1 <0>         0.1146
     16 C15        -3.6837   -3.6409   -3.5251 C.ar      1 <0>        -0.0139
     17 C16        -3.4530   -3.4610   -2.1589 C.ar      1 <0>         0.0268
     18 C17        -3.5938   -2.2337   -1.2819 C.3       1 <0>        -0.0780
     19 N1         -4.1727   -2.8290   -4.4931 N.2       1 <0>        -0.2031
     20 N2         -4.2075   -3.4521   -5.6179 N.2       1 <0>         0.0031
     21 N3         -3.7232   -4.7568   -5.4460 N.pl3     1 <0>        -0.4948
     22 H1         -3.6418   -5.4393   -6.1304 H         1 <0>         0.4511
     23 C18        -2.8566   -6.3585    1.0633 C.2       1 <0>         0.0346
     24 C19        -1.8502   -7.1648    1.4994 C.2       1 <0>        -0.1786
     25 C20        -2.2438   -8.4895    1.2249 C.2       1 <0>        -0.2101
     26 C21        -3.4570   -8.4284    0.6414 C.2       1 <0>        -0.0399
     27 O2         -3.8268   -7.1398    0.5506 O.3       1 <0>        -0.1682
     28 H2          1.0039    1.9031    0.0027 H         1 <0>         0.0538
     29 H3         -0.5459    1.8868   -0.8726 H         1 <0>         0.0543
     30 H4         -0.5289    1.8773    0.9072 H         1 <0>         0.0545
     31 H5          0.5123   -0.3556   -0.8948 H         1 <0>         0.0611
     32 H6          0.5293   -0.3651    0.8851 H         1 <0>         0.0620
     33 H7         -1.9435   -0.1821    0.9097 H         1 <0>         0.0705
     34 H8         -1.9605   -0.1726   -0.8702 H         1 <0>         0.0686
     35 H9         -0.9024   -2.4150   -0.8923 H         1 <0>         0.0726
     36 H10        -0.8854   -2.4246    0.8875 H         1 <0>         0.0742
     37 H11        -3.5930   -1.0283    1.2974 H         1 <0>         0.0933
     38 H12        -4.6432   -2.4650    1.2019 H         1 <0>         0.0786
     39 H13        -1.9170   -2.3153    2.5663 H         1 <0>         0.1090
     40 H14        -3.4922   -2.3795    3.3866 H         1 <0>         0.1041
     41 H15        -2.2118   -6.5460   -1.4410 H         1 <0>         0.1382
     42 H16        -2.6027   -6.8566   -3.8215 H         1 <0>         0.1412
     43 H17        -4.6449   -2.0347   -1.0730 H         1 <0>         0.1031
     44 H18        -3.1306   -1.3704   -1.7596 H         1 <0>         0.1036
     45 H19        -0.9281   -6.8500    1.9653 H         1 <0>         0.1477
     46 H20        -1.6796   -9.3848    1.4407 H         1 <0>         0.1507
     47 H21        -4.0379   -9.2750    0.3066 H         1 <0>         0.2036
@<TRIPOS>BOND
     1    1    2 1
     2    1   28 1
     3    1   29 1
     4    1   30 1
     5    2    3 1
     6    2   31 1
     7    2   32 1
     8    3    4 1
     9    3   33 1
    10    3   34 1
    11    4    5 1
    12    4   35 1
    13    4   36 1
    14    5   11 1
    15    5   18 1
    16    5    6 1
    17    6    7 1
    18    6   37 1
    19    6   38 1
    20    7    8 1
    21    7   39 1
    22    7   40 1
    23    8    9 2
    24    8   10 1
    25   10   11 2
    26   10   23 1
    27   11   12 1
    28   12   17 ar
    29   12   13 ar
    30   13   14 ar
    31   13   41 1
    32   14   15 ar
    33   14   42 1
    34   15   21 1
    35   15   16 ar
    36   16   17 ar
    37   16   19 1
    38   17   18 1
    39   18   43 1
    40   18   44 1
    41   19   20 2
    42   20   21 1
    43   21   22 1
    44   23   27 1
    45   23   24 2
    46   24   25 1
    47   24   45 1
    48   25   26 2
    49   25   46 1
    50   26   27 1
    51   26   47 1
@<TRIPOS>MOLECULE
CHEMBL214200__3
   47    51     0     0     0
SMALL
USER_CHARGES

@<TRIPOS>ATOM
      1 C1         -0.0187    1.5258    0.0104 C.3       1 <0>        -0.1541
      2 C2          0.0021   -0.0041    0.0020 C.3       1 <0>        -0.1258
      3 C3         -1.4333   -0.5336    0.0129 C.3       1 <0>        -0.1221
      4 C4         -1.4126   -2.0635    0.0045 C.3       1 <0>        -0.1016
      5 C5         -2.8479   -2.5931    0.0153 C.3       1 <0>        -0.0361
      6 C6         -3.6362   -2.1034   -1.2016 C.3       1 <0>        -0.1081
      7 C7         -2.9901   -2.6672   -2.4704 C.3       1 <0>        -0.1614
      8 C8         -2.9626   -4.1722   -2.4269 C.2       1 <0>         0.4006
      9 O1         -2.9832   -4.8077   -3.4607 O.2       1 <0>        -0.4454
     10 C9         -2.9103   -4.8740   -1.1367 C.2       1 <0>        -0.1237
     11 C10        -2.8868   -4.1126    0.0075 C.2       1 <0>         0.0444
     12 C11        -2.9300   -4.5368    1.4072 C.ar      1 <0>        -0.0727
     13 C12        -2.5738   -5.7717    2.0051 C.ar      1 <0>        -0.0653
     14 C13        -2.7387   -6.0006    3.3261 C.ar      1 <0>        -0.0682
     15 C14        -3.2755   -4.9945    4.1530 C.ar      1 <0>         0.0461
     16 C15        -3.6220   -3.6939    3.5600 C.ar      1 <0>         0.0319
     17 C16        -3.4117   -3.4907    2.1888 C.ar      1 <0>        -0.0012
     18 C17        -3.5688   -2.2511    1.3312 C.3       1 <0>        -0.0742
     19 N1         -4.0922   -2.9772    4.5710 N.2       1 <0>        -0.2579
     20 N2         -4.0565   -3.6946    5.6394 N.pl3     1 <0>        -0.1917
     21 N3         -3.5865   -4.8749    5.4324 N.2       1 <0>        -0.2700
     22 H1         -4.3519   -3.3792    6.5078 H         1 <0>         0.4751
     23 C18        -2.8845   -6.3475   -1.0717 C.2       1 <0>         0.0343
     24 C19        -3.8812   -7.1829   -1.4750 C.2       1 <0>        -0.1748
     25 C20        -3.4329   -8.4961   -1.2319 C.2       1 <0>        -0.2080
     26 C21        -2.1989   -8.4001   -0.6984 C.2       1 <0>        -0.0401
     27 O2         -1.8685   -7.1009   -0.6084 O.3       1 <0>        -0.1704
     28 H2          1.0039    1.9031    0.0027 H         1 <0>         0.0539
     29 H3         -0.5459    1.8868   -0.8726 H         1 <0>         0.0546
     30 H4         -0.5289    1.8773    0.9072 H         1 <0>         0.0536
     31 H5          0.5123   -0.3556   -0.8948 H         1 <0>         0.0625
     32 H6          0.5293   -0.3651    0.8851 H         1 <0>         0.0612
     33 H7         -1.9435   -0.1821    0.9097 H         1 <0>         0.0676
     34 H8         -1.9605   -0.1726   -0.8702 H         1 <0>         0.0703
     35 H9         -0.9024   -2.4150   -0.8923 H         1 <0>         0.0741
     36 H10        -0.8854   -2.4246    0.8875 H         1 <0>         0.0730
     37 H11        -4.6674   -2.4497   -1.1321 H         1 <0>         0.0789
     38 H12        -3.6166   -1.0141   -1.2350 H         1 <0>         0.0922
     39 H13        -3.5624   -2.3432   -3.3396 H         1 <0>         0.1041
     40 H14        -1.9702   -2.2913   -2.5518 H         1 <0>         0.1083
     41 H15        -2.1584   -6.5531    1.3860 H         1 <0>         0.1413
     42 H16        -2.4589   -6.9545    3.7481 H         1 <0>         0.1431
     43 H17        -3.0961   -1.3944    1.8116 H         1 <0>         0.0992
     44 H18        -4.6236   -2.0492    1.1450 H         1 <0>         0.0993
     45 H19        -4.8318   -6.8946   -1.8989 H         1 <0>         0.1469
     46 H20        -3.9756   -9.4076   -1.4345 H         1 <0>         0.1507
     47 H21        -1.5769   -9.2301   -0.3974 H         1 <0>         0.2055
@<TRIPOS>BOND
     1    1    2 1
     2    1   28 1
     3    1   29 1
     4    1   30 1
     5    2    3 1
     6    2   31 1
     7    2   32 1
     8    3    4 1
     9    3   33 1
    10    3   34 1
    11    4    5 1
    12    4   35 1
    13    4   36 1
    14    5   11 1
    15    5   18 1
    16    5    6 1
    17    6    7 1
    18    6   37 1
    19    6   38 1
    20    7    8 1
    21    7   39 1
    22    7   40 1
    23    8    9 2
    24    8   10 1
    25   10   11 2
    26   10   23 1
    27   11   12 1
    28   12   17 ar
    29   12   13 ar
    30   13   14 ar
    31   13   41 1
    32   14   15 ar
    33   14   42 1
    34   15   16 ar
    35   15   21 2
    36   16   17 ar
    37   16   19 2
    38   17   18 1
    39   18   43 1
    40   18   44 1
    41   19   20 1
    42   20   22 1
    43   20   21 1
    44   23   27 1
    45   23   24 2
    46   24   25 1
    47   24   45 1
    48   25   26 2
    49   25   46 1
    50   26   27 1
    51   26   47 1
@<TRIPOS>MOLECULE
CHEMBL214200__4
   47    51     0     0     0
SMALL
USER_CHARGES

@<TRIPOS>ATOM
      1 C1         -0.0187    1.5258    0.0104 C.3       1 <0>        -0.1542
      2 C2          0.0021   -0.0041    0.0020 C.3       1 <0>        -0.1256
      3 C3         -1.4333   -0.5336    0.0129 C.3       1 <0>        -0.1227
      4 C4         -1.4126   -2.0635    0.0045 C.3       1 <0>        -0.1016
      5 C5         -2.8479   -2.5931    0.0153 C.3       1 <0>        -0.0367
      6 C6         -3.6350   -2.1041   -1.2025 C.3       1 <0>        -0.1083
      7 C7         -2.9850   -2.6661   -2.4702 C.3       1 <0>        -0.1615
      8 C8         -2.9540   -4.1710   -2.4268 C.2       1 <0>         0.4009
      9 O1         -2.9696   -4.8062   -3.4609 O.2       1 <0>        -0.4460
     10 C9         -2.9044   -4.8733   -1.1369 C.2       1 <0>        -0.1277
     11 C10        -2.8857   -4.1130    0.0075 C.2       1 <0>         0.0497
     12 C11        -2.9341   -4.5360    1.4068 C.ar      1 <0>        -0.1088
     13 C12        -2.5971   -5.7626    2.0158 C.ar      1 <0>        -0.0245
     14 C13        -2.7863   -5.9502    3.3494 C.ar      1 <0>        -0.1303
     15 C14        -3.3077   -4.9246    4.1363 C.ar      1 <0>         0.1149
     16 C15        -3.6161   -3.6786    3.5597 C.ar      1 <0>        -0.0146
     17 C16        -3.4116   -3.4841    2.1912 C.ar      1 <0>         0.0277
     18 C17        -3.5690   -2.2476    1.3302 C.3       1 <0>        -0.0782
     19 N1         -4.0865   -2.8772    4.5455 N.2       1 <0>        -0.2029
     20 N2         -4.1001   -3.5125    5.6640 N.2       1 <0>         0.0031
     21 N3         -3.6197   -4.8154    5.4687 N.pl3     1 <0>        -0.4949
     22 H1         -3.5266   -5.5056    6.1439 H         1 <0>         0.4512
     23 C18        -2.8766   -6.3471   -1.0726 C.2       1 <0>         0.0352
     24 C19        -3.8707   -7.1836   -1.4792 C.2       1 <0>        -0.1752
     25 C20        -3.4211   -8.4964   -1.2356 C.2       1 <0>        -0.2074
     26 C21        -2.1890   -8.3989   -0.6986 C.2       1 <0>        -0.0420
     27 O2         -1.8608   -7.0992   -0.6069 O.3       1 <0>        -0.1718
     28 H2          1.0039    1.9031    0.0027 H         1 <0>         0.0538
     29 H3         -0.5459    1.8868   -0.8726 H         1 <0>         0.0546
     30 H4         -0.5289    1.8773    0.9072 H         1 <0>         0.0543
     31 H5          0.5123   -0.3556   -0.8948 H         1 <0>         0.0620
     32 H6          0.5293   -0.3651    0.8851 H         1 <0>         0.0612
     33 H7         -1.9435   -0.1821    0.9097 H         1 <0>         0.0687
     34 H8         -1.9605   -0.1726   -0.8702 H         1 <0>         0.0706
     35 H9         -0.9024   -2.4150   -0.8923 H         1 <0>         0.0739
     36 H10        -0.8854   -2.4246    0.8875 H         1 <0>         0.0725
     37 H11        -4.6656   -2.4526   -1.1353 H         1 <0>         0.0792
     38 H12        -3.6174   -1.0147   -1.2353 H         1 <0>         0.0929
     39 H13        -3.5565   -2.3434   -3.3405 H         1 <0>         0.1043
     40 H14        -1.9659   -2.2877   -2.5497 H         1 <0>         0.1084
     41 H15        -2.1850   -6.5613    1.4169 H         1 <0>         0.1442
     42 H16        -2.5318   -6.8978    3.8006 H         1 <0>         0.1411
     43 H17        -3.0968   -1.3893    1.8082 H         1 <0>         0.1036
     44 H18        -4.6239   -2.0467    1.1435 H         1 <0>         0.1034
     45 H19        -4.8205   -6.8963   -1.9056 H         1 <0>         0.1473
     46 H20        -3.9620   -9.4086   -1.4401 H         1 <0>         0.1508
     47 H21        -1.5666   -9.2282   -0.3963 H         1 <0>         0.2053
@<TRIPOS>BOND
     1    1    2 1
     2    1   28 1
     3    1   29 1
     4    1   30 1
     5    2    3 1
     6    2   31 1
     7    2   32 1
     8    3    4 1
     9    3   33 1
    10    3   34 1
    11    4    5 1
    12    4   35 1
    13    4   36 1
    14    5   11 1
    15    5   18 1
    16    5    6 1
    17    6    7 1
    18    6   37 1
    19    6   38 1
    20    7    8 1
    21    7   39 1
    22    7   40 1
    23    8    9 2
    24    8   10 1
    25   10   11 2
    26   10   23 1
    27   11   12 1
    28   12   17 ar
    29   12   13 ar
    30   13   14 ar
    31   13   41 1
    32   14   15 ar
    33   14   42 1
    34   15   21 1
    35   15   16 ar
    36   16   17 ar
    37   16   19 1
    38   17   18 1
    39   18   43 1
    40   18   44 1
    41   19   20 2
    42   20   21 1
    43   21   22 1
    44   23   27 1
    45   23   24 2
    46   24   25 1
    47   24   45 1
    48   25   26 2
    49   25   46 1
    50   26   27 1
    51   26   47 1
@<TRIPOS>MOLECULE
CHEMBL214200__5
   47    51     0     0     0
SMALL
USER_CHARGES

@<TRIPOS>ATOM
      1 C1         -0.0187    1.5258    0.0104 C.3       1 <0>        -0.1541
      2 C2          0.0021   -0.0041    0.0020 C.3       1 <0>        -0.1263
      3 C3         -1.4333   -0.5336    0.0129 C.3       1 <0>        -0.1213
      4 C4         -1.4126   -2.0635    0.0045 C.3       1 <0>        -0.1030
      5 C5         -2.8479   -2.5931    0.0153 C.3       1 <0>        -0.0333
      6 C6         -3.6347   -2.1039   -1.2026 C.3       1 <0>        -0.1083
      7 C7         -2.9850   -2.6658   -2.4704 C.3       1 <0>        -0.1615
      8 C8         -2.9548   -4.1708   -2.4274 C.2       1 <0>         0.3994
      9 O1         -2.9716   -4.8058   -3.4615 O.2       1 <0>        -0.4421
     10 C9         -2.9046   -4.8733   -1.1373 C.2       1 <0>        -0.1145
     11 C10        -2.8853   -4.1129    0.0075 C.2       1 <0>         0.0377
     12 C11        -2.9320   -4.5364    1.4059 C.ar      1 <0>        -0.0544
     13 C12        -2.5924   -5.7629    2.0141 C.ar      1 <0>        -0.0779
     14 C13        -2.7781   -5.9533    3.3465 C.ar      1 <0>        -0.0535
     15 C14        -3.3051   -4.9237    4.1356 C.ar      1 <0>         0.0321
     16 C15        -3.6132   -3.6799    3.5490 C.ar      1 <0>         0.0349
     17 C16        -3.4113   -3.4830    2.1927 C.ar      1 <0>        -0.0505
     18 C17        -3.5688   -2.2472    1.3301 C.3       1 <0>        -0.0766
     19 N1         -4.0871   -2.9033    4.5792 N.pl3     1 <0>        -0.4131
     20 N2         -4.0725   -3.6126    5.6543 N.2       1 <0>        -0.0051
     21 N3         -3.6243   -4.7989    5.4382 N.2       1 <0>        -0.2479
     22 H1         -4.3809   -1.9815    4.5090 H         1 <0>         0.4538
     23 C18        -2.8769   -6.3468   -1.0732 C.2       1 <0>         0.0293
     24 C19        -3.8715   -7.1833   -1.4794 C.2       1 <0>        -0.1723
     25 C20        -3.4219   -8.4960   -1.2362 C.2       1 <0>        -0.2082
     26 C21        -2.1894   -8.3987   -0.6997 C.2       1 <0>        -0.0376
     27 O2         -1.8610   -7.0991   -0.6080 O.3       1 <0>        -0.1701
     28 H2          1.0039    1.9031    0.0027 H         1 <0>         0.0548
     29 H3         -0.5459    1.8868   -0.8726 H         1 <0>         0.0548
     30 H4         -0.5289    1.8773    0.9072 H         1 <0>         0.0531
     31 H5          0.5123   -0.3556   -0.8948 H         1 <0>         0.0632
     32 H6          0.5293   -0.3651    0.8851 H         1 <0>         0.0615
     33 H7         -1.9435   -0.1821    0.9097 H         1 <0>         0.0656
     34 H8         -1.9605   -0.1726   -0.8702 H         1 <0>         0.0707
     35 H9         -0.9024   -2.4150   -0.8923 H         1 <0>         0.0751
     36 H10        -0.8854   -2.4246    0.8875 H         1 <0>         0.0731
     37 H11        -4.6654   -2.4522   -1.1354 H         1 <0>         0.0788
     38 H12        -3.6170   -1.0145   -1.2353 H         1 <0>         0.0921
     39 H13        -3.5562   -2.3424   -3.3406 H         1 <0>         0.1050
     40 H14        -1.9656   -2.2880   -2.5496 H         1 <0>         0.1088
     41 H15        -2.1803   -6.5603    1.4135 H         1 <0>         0.1432
     42 H16        -2.5193   -6.8999    3.7973 H         1 <0>         0.1468
     43 H17        -3.0967   -1.3884    1.8073 H         1 <0>         0.0951
     44 H18        -4.6237   -2.0465    1.1432 H         1 <0>         0.0973
     45 H19        -4.8215   -6.8960   -1.9053 H         1 <0>         0.1472
     46 H20        -3.9630   -9.4081   -1.4405 H         1 <0>         0.1516
     47 H21        -1.5671   -9.2280   -0.3975 H         1 <0>         0.2065
@<TRIPOS>BOND
     1    1    2 1
     2    1   28 1
     3    1   29 1
     4    1   30 1
     5    2    3 1
     6    2   31 1
     7    2   32 1
     8    3    4 1
     9    3   33 1
    10    3   34 1
    11    4    5 1
    12    4   35 1
    13    4   36 1
    14    5   11 1
    15    5   18 1
    16    5    6 1
    17    6    7 1
    18    6   37 1
    19    6   38 1
    20    7    8 1
    21    7   39 1
    22    7   40 1
    23    8    9 2
    24    8   10 1
    25   10   11 2
    26   10   23 1
    27   11   12 1
    28   12   17 ar
    29   12   13 ar
    30   13   14 ar
    31   13   41 1
    32   14   15 ar
    33   14   42 1
    34   15   16 ar
    35   15   21 1
    36   16   17 ar
    37   16   19 1
    38   17   18 1
    39   18   43 1
    40   18   44 1
    41   19   22 1
    42   19   20 1
    43   20   21 2
    44   23   27 1
    45   23   24 2
    46   24   25 1
    47   24   45 1
    48   25   26 2
    49   25   46 1
    50   26   27 1
    51   26   47 1
@<TRIPOS>MOLECULE
CHEMBL235496
   51    54     0     0     0
SMALL
USER_CHARGES

@<TRIPOS>ATOM
      1 C1         -0.4412    1.4703   -1.6456 C.3       1 <0>         0.0286
      2 O1         -0.4188    0.0454   -1.7516 O.3       1 <0>        -0.3488
      3 C2          0.5514   -0.6048   -1.0730 C.2       1 <0>         0.5420
      4 O2          1.3564    0.0239   -0.4091 O.2       1 <0>        -0.5030
      5 C3          0.6319   -2.0036   -1.1327 C.2       1 <0>        -0.3733
      6 C4          1.1765   -2.5928   -2.2276 C.2       1 <0>         0.4329
      7 O3          1.2795   -3.9264   -2.3384 O.3       1 <0>        -0.2470
      8 C5          1.2131   -4.7048   -1.2302 C.ar      1 <0>         0.1339
      9 C6          1.7091   -6.0013   -1.2792 C.ar      1 <0>        -0.1523
     10 C7          1.6498   -6.8097   -0.1559 C.ar      1 <0>         0.1379
     11 C8          1.0940   -6.3222    1.0187 C.ar      1 <0>        -0.1528
     12 C9          0.6009   -5.0333    1.0657 C.ar      1 <0>        -0.0602
     13 C10         0.6581   -4.2235   -0.0550 C.ar      1 <0>        -0.1276
     14 C11         0.1192   -2.8210    0.0195 C.3       1 <0>         0.0928
     15 C12        -1.3862   -2.8666   -0.0315 C.ar      1 <0>        -0.1111
     16 C13        -2.0234   -3.4084   -1.1324 C.ar      1 <0>        -0.0548
     17 C14        -3.4033   -3.4509   -1.1818 C.ar      1 <0>        -0.1452
     18 C15        -4.1498   -2.9497   -0.1253 C.ar      1 <0>         0.1309
     19 C16        -3.5080   -2.4069    0.9785 C.ar      1 <0>        -0.2049
     20 C17        -2.1278   -2.3715    1.0252 C.ar      1 <0>        -0.0712
     21 O4         -5.5074   -2.9899   -0.1716 O.3       1 <0>        -0.3100
     22 C18        -6.2110   -2.4559    0.9517 C.3       1 <0>         0.1065
     23 C19        -7.6949   -2.5859    0.7231 C.ar      1 <0>        -0.1273
     24 C20        -8.1672   -3.1617   -0.4413 C.ar      1 <0>        -0.0696
     25 C21        -9.5281   -3.2811   -0.6513 C.ar      1 <0>        -0.1284
     26 C22       -10.4186   -2.8249    0.3030 C.ar      1 <0>        -0.0885
     27 C23        -9.9488   -2.2493    1.4680 C.ar      1 <0>        -0.1514
     28 C24        -8.5854   -2.1339    1.6818 C.ar      1 <0>         0.1045
     29 F1         -8.1249   -1.5756    2.8226 F         1 <0>        -0.1369
     30 O5          2.1348   -8.0782   -0.2040 O.3       1 <0>        -0.4921
     31 N1          1.6336   -1.8037   -3.2489 N.pl3     1 <0>        -0.8325
     32 H1         -0.5728    1.7550   -0.6017 H         1 <0>         0.0601
     33 H2          0.4993    1.8771   -2.0174 H         1 <0>         0.0584
     34 H3         -1.2671    1.8657   -2.2370 H         1 <0>         0.1003
     35 H4          2.1410   -6.3796   -2.1940 H         1 <0>         0.1436
     36 H5          1.0469   -6.9508    1.8956 H         1 <0>         0.1383
     37 H6          0.1686   -4.6558    1.9806 H         1 <0>         0.1381
     38 H7          0.4328   -2.3609    0.9565 H         1 <0>         0.0963
     39 H8         -1.4419   -3.7985   -1.9547 H         1 <0>         0.1214
     40 H9         -3.9006   -3.8736   -2.0423 H         1 <0>         0.1306
     41 H10        -4.0869   -2.0161    1.8022 H         1 <0>         0.1280
     42 H11        -1.6277   -1.9531    1.8862 H         1 <0>         0.1247
     43 H12        -5.9322   -3.0063    1.8502 H         1 <0>         0.0796
     44 H13        -5.9532   -1.4040    1.0753 H         1 <0>         0.0793
     45 H14        -7.4726   -3.5181   -1.1876 H         1 <0>         0.1425
     46 H15        -9.8963   -3.7309   -1.5616 H         1 <0>         0.1330
     47 H16       -11.4818   -2.9181    0.1376 H         1 <0>         0.1352
     48 H17       -10.6445   -1.8927    2.2132 H         1 <0>         0.1391
     49 H18         3.0689   -8.1516    0.0353 H         1 <0>         0.3966
     50 H19         1.6509   -0.8393   -3.1463 H         1 <0>         0.4226
     51 H20         1.9400   -2.2091   -4.0752 H         1 <0>         0.4115
@<TRIPOS>BOND
     1    1    2 1
     2    1   32 1
     3    1   33 1
     4    1   34 1
     5    2    3 1
     6    3    4 2
     7    3    5 1
     8    5   14 1
     9    5    6 2
    10    6    7 1
    11    6   31 1
    12    7    8 1
    13    8   13 ar
    14    8    9 ar
    15    9   10 ar
    16    9   35 1
    17   10   11 ar
    18   10   30 1
    19   11   12 ar
    20   11   36 1
    21   12   13 ar
    22   12   37 1
    23   13   14 1
    24   14   15 1
    25   14   38 1
    26   15   20 ar
    27   15   16 ar
    28   16   17 ar
    29   16   39 1
    30   17   18 ar
    31   17   40 1
    32   18   19 ar
    33   18   21 1
    34   19   20 ar
    35   19   41 1
    36   20   42 1
    37   21   22 1
    38   22   23 1
    39   22   43 1
    40   22   44 1
    41   23   28 ar
    42   23   24 ar
    43   24   25 ar
    44   24   45 1
    45   25   26 ar
    46   25   46 1
    47   26   27 ar
    48   26   47 1
    49   27   28 ar
    50   27   48 1
    51   28   29 1
    52   30   49 1
    53   31   50 1
    54   31   51 1
@<TRIPOS>MOLECULE
CHEMBL235496__1
   51    54     0     0     0
SMALL
USER_CHARGES

@<TRIPOS>ATOM
      1 C1          1.5662    1.5270   -0.6912 C.3       1 <0>         0.0286
      2 O1          1.6998    0.1052   -0.7441 O.3       1 <0>        -0.3510
      3 C2          0.5925   -0.6036   -1.0537 C.2       1 <0>         0.5418
      4 O2         -0.4582   -0.0273   -1.2726 O.2       1 <0>        -0.5010
      5 C3          0.6524   -2.0030   -1.1231 C.2       1 <0>        -0.3751
      6 C4          1.1765   -2.5928   -2.2276 C.2       1 <0>         0.4332
      7 O3          1.2592   -3.9269   -2.3480 O.3       1 <0>        -0.2461
      8 C5          0.4850   -4.7258   -1.5727 C.ar      1 <0>         0.1330
      9 C6          0.2683   -6.0429   -1.9569 C.ar      1 <0>        -0.1528
     10 C7         -0.5205   -6.8723   -1.1768 C.ar      1 <0>         0.1376
     11 C8         -1.0940   -6.3853   -0.0105 C.ar      1 <0>        -0.1517
     12 C9         -0.8771   -5.0759    0.3704 C.ar      1 <0>        -0.0607
     13 C10        -0.0891   -4.2450   -0.4064 C.ar      1 <0>        -0.1260
     14 C11         0.1408   -2.8205    0.0295 C.3       1 <0>         0.0926
     15 C12         1.1502   -2.7929    1.1482 C.ar      1 <0>        -0.1107
     16 C13         2.4307   -3.2686    0.9342 C.ar      1 <0>        -0.0555
     17 C14         3.3577   -3.2448    1.9581 C.ar      1 <0>        -0.1455
     18 C15         3.0031   -2.7426    3.2018 C.ar      1 <0>         0.1307
     19 C16         1.7178   -2.2654    3.4138 C.ar      1 <0>        -0.2048
     20 C17         0.7959   -2.2866    2.3851 C.ar      1 <0>        -0.0708
     21 O4          3.9131   -2.7185    4.2108 O.3       1 <0>        -0.3101
     22 C18         3.4782   -2.1875    5.4642 C.3       1 <0>         0.1065
     23 C19         4.6134   -2.2416    6.4538 C.ar      1 <0>        -0.1274
     24 C20         5.8411   -2.7480    6.0706 C.ar      1 <0>        -0.0697
     25 C21         6.8826   -2.7977    6.9780 C.ar      1 <0>        -0.1285
     26 C22         6.6977   -2.3410    8.2699 C.ar      1 <0>        -0.0885
     27 C23         5.4714   -1.8339    8.6551 C.ar      1 <0>        -0.1513
     28 C24         4.4288   -1.7788    7.7454 C.ar      1 <0>         0.1046
     29 F1          3.2308   -1.2789    8.1196 F         1 <0>        -0.1368
     30 O5         -0.7330   -8.1607   -1.5532 O.3       1 <0>        -0.4923
     31 N1          1.6337   -1.8037   -3.2489 N.pl3     1 <0>        -0.8323
     32 H1          1.2434    1.8981   -1.6639 H         1 <0>         0.0586
     33 H2          0.8267    1.7946    0.0635 H         1 <0>         0.0602
     34 H3          2.5267    1.9728   -0.4327 H         1 <0>         0.1004
     35 H4          0.7149   -6.4205   -2.8649 H         1 <0>         0.1435
     36 H5         -1.7100   -7.0301    0.5987 H         1 <0>         0.1384
     37 H6         -1.3241   -4.6988    1.2784 H         1 <0>         0.1382
     38 H7         -0.7990   -2.3969    0.3837 H         1 <0>         0.0965
     39 H8          2.7063   -3.6594   -0.0341 H         1 <0>         0.1214
     40 H9          4.3576   -3.6171    1.7907 H         1 <0>         0.1303
     41 H10         1.4393   -1.8740    4.3811 H         1 <0>         0.1280
     42 H11        -0.2035   -1.9112    2.5483 H         1 <0>         0.1249
     43 H12         3.1617   -1.1531    5.3304 H         1 <0>         0.0794
     44 H13         2.6417   -2.7778    5.8382 H         1 <0>         0.0796
     45 H14         5.9866   -3.1053    5.0618 H         1 <0>         0.1424
     46 H15         7.8414   -3.1938    6.6778 H         1 <0>         0.1329
     47 H16         7.5119   -2.3810    8.9783 H         1 <0>         0.1352
     48 H17         5.3271   -1.4776    9.6644 H         1 <0>         0.1392
     49 H18        -0.0804   -8.7844   -1.2066 H         1 <0>         0.3966
     50 H19         1.6511   -0.8393   -3.1462 H         1 <0>         0.4231
     51 H20         1.9402   -2.2091   -4.0751 H         1 <0>         0.4113
@<TRIPOS>BOND
     1    1    2 1
     2    1   32 1
     3    1   33 1
     4    1   34 1
     5    2    3 1
     6    3    4 2
     7    3    5 1
     8    5   14 1
     9    5    6 2
    10    6    7 1
    11    6   31 1
    12    7    8 1
    13    8   13 ar
    14    8    9 ar
    15    9   10 ar
    16    9   35 1
    17   10   11 ar
    18   10   30 1
    19   11   12 ar
    20   11   36 1
    21   12   13 ar
    22   12   37 1
    23   13   14 1
    24   14   15 1
    25   14   38 1
    26   15   20 ar
    27   15   16 ar
    28   16   17 ar
    29   16   39 1
    30   17   18 ar
    31   17   40 1
    32   18   19 ar
    33   18   21 1
    34   19   20 ar
    35   19   41 1
    36   20   42 1
    37   21   22 1
    38   22   23 1
    39   22   43 1
    40   22   44 1
    41   23   28 ar
    42   23   24 ar
    43   24   25 ar
    44   24   45 1
    45   25   26 ar
    46   25   46 1
    47   26   27 ar
    48   26   47 1
    49   27   28 ar
    50   27   48 1
    51   28   29 1
    52   30   49 1
    53   31   50 1
    54   31   51 1
@<TRIPOS>MOLECULE
CHEMBL8395
   21    25     0     0     0
SMALL
USER_CHARGES

@<TRIPOS>ATOM
      1 C1         -0.0187    1.5269    0.0104 C.2       1 <0>         0.3913
      2 O1          0.9002    2.3104    0.0059 O.2       1 <0>        -0.3155
      3 C2         -1.5271    1.7894    0.0194 C.3       1 <0>        -0.0563
      4 C3         -2.0737    0.7969    1.0704 C.3       1 <0>         0.0143
      5 C4         -3.1658    0.4088    0.0158 C.3       1 <0>         0.0031
      6 C5         -2.0844    0.7955   -1.0270 C.3       1 <0>         0.0043
      7 C6         -1.0774   -0.3854   -1.0385 C.3       1 <0>         0.0037
      8 C7          0.0021   -0.0041    0.0020 C.3       1 <0>        -0.0557
      9 C8         -1.0542   -0.3988    1.0588 C.3       1 <0>         0.0148
     10 C9         -1.6202   -1.4038   -0.0018 C.3       1 <0>         0.0029
     11 C10        -3.1674   -1.1570   -0.0791 C.3       1 <0>         0.0678
     12 Cl1        -3.8502   -1.7240   -1.6486 Cl        1 <0>        -0.0366
     13 Cl2        -4.0271   -1.9036    1.3189 Cl        1 <0>        -0.0445
     14 Cl3        -1.0253   -3.1058   -0.0111 Cl        1 <0>         0.0134
     15 Cl4        -0.5000   -1.0252    2.6561 Cl        1 <0>        -0.0082
     16 Cl5         1.6063   -0.8259   -0.0411 Cl        1 <0>         0.0078
     17 Cl6        -0.5556   -0.9979   -2.6520 Cl        1 <0>        -0.0097
     18 Cl7        -2.6218    1.4397   -2.6229 Cl        1 <0>        -0.0098
     19 Cl8        -4.7593    1.2517    0.0436 Cl        1 <0>         0.0136
     20 Cl9        -2.5893    1.4252    2.6799 Cl        1 <0>        -0.0082
     21 Cl10       -2.0852    3.5038    0.0072 Cl        1 <0>         0.0078
@<TRIPOS>BOND
     1    1    8 1
     2    1    2 2
     3    1    3 1
     4    3    6 1
     5    3    4 1
     6    3   21 1
     7    4    9 1
     8    4    5 1
     9    4   20 1
    10    5   11 1
    11    5    6 1
    12    5   19 1
    13    6    7 1
    14    6   18 1
    15    7   10 1
    16    7    8 1
    17    7   17 1
    18    8    9 1
    19    8   16 1
    20    9   10 1
    21    9   15 1
    22   10   11 1
    23   10   14 1
    24   11   12 1
    25   11   13 1
@<TRIPOS>MOLECULE
CHEMBL1213617
   27    28     0     0     0
SMALL
USER_CHARGES

@<TRIPOS>ATOM
      1 C1         -0.0167    1.3830    0.0096 C.ar      1 <0>        -0.1425
      2 C2          1.1722    2.0816    0.0020 C.ar      1 <0>        -0.0905
      3 C3          2.3867    1.4090   -0.0094 C.ar      1 <0>        -0.1097
      4 C4          2.4098    0.0316   -0.0071 C.ar      1 <0>        -0.0525
      5 C5          1.2137   -0.6738   -0.0073 C.ar      1 <0>        -0.1440
      6 C6          0.0021   -0.0041    0.0020 C.ar      1 <0>         0.1140
      7 O1         -1.1637   -0.7025    0.0041 O.3       1 <0>        -0.4983
      8 C7          3.6884   -0.7640    0.0117 C.3       1 <0>        -0.0995
      9 C8          4.8645    0.0846   -0.4689 C.3       1 <0>         0.1117
     10 N1          4.8068    1.3776    0.2327 N.am      1 <0>        -0.5877
     11 C9          3.6476    2.2364   -0.0318 C.3       1 <0>         0.1358
     12 C10         5.7801    1.7568    1.0843 C.2       1 <0>         0.4896
     13 O2          6.7279    1.0273    1.2856 O.2       1 <0>        -0.4728
     14 C11         5.6907    3.0872    1.7866 C.3       1 <0>         0.4514
     15 F1          6.8082    3.2551    2.6114 F         1 <0>        -0.1492
     16 F2          5.6534    4.1140    0.8371 F         1 <0>        -0.1655
     17 F3          4.5277    3.1274    2.5630 F         1 <0>        -0.1641
     18 H1         -0.9576    1.9130    0.0260 H         1 <0>         0.1339
     19 H2          1.1584    3.1615    0.0046 H         1 <0>         0.1325
     20 H3          1.2288   -1.7536   -0.0147 H         1 <0>         0.1316
     21 H4         -1.5056   -0.8998   -0.8787 H         1 <0>         0.3937
     22 H5          3.8839   -1.1044    1.0286 H         1 <0>         0.0877
     23 H6          3.5811   -1.6304   -0.6410 H         1 <0>         0.0973
     24 H7          5.8024   -0.4197   -0.2362 H         1 <0>         0.1075
     25 H8          4.7882    0.2449   -1.5443 H         1 <0>         0.0902
     26 H9          3.7578    2.7031   -1.0107 H         1 <0>         0.0994
     27 H10         3.5873    3.0102    0.7335 H         1 <0>         0.1000
@<TRIPOS>BOND
     1    1    6 ar
     2    1    2 ar
     3    1   18 1
     4    2    3 ar
     5    2   19 1
     6    3   11 1
     7    3    4 ar
     8    4    5 ar
     9    4    8 1
    10    5    6 ar
    11    5   20 1
    12    6    7 1
    13    7   21 1
    14    8    9 1
    15    8   22 1
    16    8   23 1
    17    9   10 1
    18    9   24 1
    19    9   25 1
    20   10   11 1
    21   10   12 am
    22   11   26 1
    23   11   27 1
    24   12   13 2
    25   12   14 1
    26   14   15 1
    27   14   16 1
    28   14   17 1
@<TRIPOS>MOLECULE
CHEMBL182237
   67    72     0     0     0
SMALL
USER_CHARGES

@<TRIPOS>ATOM
      1 C1         -2.1873    2.1981    0.9189 C.3       1 <0>        -0.1072
      2 C2         -1.9510    0.7185    0.7572 C.ar      1 <0>         0.2221
      3 C3         -1.9736    0.1380   -0.5012 C.ar      1 <0>        -0.2925
      4 C4         -1.7511   -1.2260   -0.6057 C.ar      1 <0>         0.2222
      5 N1         -1.5251   -1.9290    0.4918 N.ar      1 <0>        -0.5764
      6 C5         -1.5102   -1.3432    1.6801 C.ar      1 <0>         0.5748
      7 N2         -1.7142   -0.0409    1.8140 N.ar      1 <0>        -0.5767
      8 N3         -1.2711   -2.1091    2.8079 N.pl3     1 <0>        -0.5839
      9 C6         -1.0299   -3.5543    2.6932 C.3       1 <0>         0.1128
     10 C7          0.3078   -3.8829    3.3677 C.3       1 <0>         0.1021
     11 N4          0.3255   -3.2654    4.7012 N.pl3     1 <0>        -0.6185
     12 C8          0.0843   -1.8203    4.8158 C.3       1 <0>         0.1029
     13 C9         -1.2478   -1.4907    4.1409 C.3       1 <0>         0.1132
     14 C10         0.5659   -4.0352    5.8346 C.ar      1 <0>         0.2581
     15 C11         0.6860   -5.4176    5.7227 C.ar      1 <0>        -0.2154
     16 C12         0.9242   -6.1819    6.8422 C.ar      1 <0>        -0.0030
     17 C13         1.0456   -5.5686    8.0925 C.ar      1 <0>        -0.2280
     18 C14         0.9245   -4.1802    8.2015 C.ar      1 <0>        -0.0077
     19 C15         0.6915   -3.4209    7.0776 C.ar      1 <0>        -0.2147
     20 C16         1.3007   -6.3855    9.2954 C.2       1 <0>         0.4653
     21 O1          1.5098   -7.5807    9.1869 O.2       1 <0>        -0.4490
     22 C17         1.3024   -5.7597   10.6179 C.2       1 <0>        -0.1537
     23 C18         2.5449   -5.2705   11.2205 C.ar      1 <0>        -0.0715
     24 C19         3.8512   -5.3109   10.6826 C.ar      1 <0>        -0.0572
     25 C20         4.9142   -4.8056   11.3838 C.ar      1 <0>        -0.1383
     26 C21         4.7428   -4.2381   12.6433 C.ar      1 <0>         0.1339
     27 C22         3.4737   -4.1839   13.1966 C.ar      1 <0>        -0.1022
     28 C23         2.4002   -4.6914   12.4952 C.ar      1 <0>        -0.1019
     29 S1          0.6640   -4.8131   12.8407 S.3       1 <0>         0.0840
     30 C24         0.1253   -5.6056   11.3386 C.2       1 <0>        -0.0542
     31 C25        -1.2411   -6.0035   10.9540 C.ar      1 <0>        -0.0376
     32 C26        -1.4765   -7.2717   10.4149 C.ar      1 <0>        -0.0716
     33 C27        -2.7548   -7.6392   10.0569 C.ar      1 <0>        -0.1389
     34 C28        -3.8096   -6.7513   10.2305 C.ar      1 <0>         0.1238
     35 C29        -3.5803   -5.4895   10.7655 C.ar      1 <0>        -0.1466
     36 C30        -2.3063   -5.1159   11.1325 C.ar      1 <0>        -0.0734
     37 O2         -5.0681   -7.1176    9.8758 O.3       1 <0>        -0.4974
     38 O3          5.8100   -3.7425   13.3238 O.3       1 <0>        -0.4909
     39 C31        -1.7668   -1.9002   -1.9535 C.3       1 <0>        -0.1074
     40 H1         -1.2362    2.7269    0.8557 H         1 <0>         0.0856
     41 H2         -2.8511    2.5486    0.1286 H         1 <0>         0.0819
     42 H3         -2.6453    2.3890    1.8894 H         1 <0>         0.0812
     43 H4         -2.1609    0.7356   -1.3811 H         1 <0>         0.1426
     44 H5         -1.8331   -4.0997    3.1887 H         1 <0>         0.0710
     45 H6         -0.9880   -3.8358    1.6410 H         1 <0>         0.1105
     46 H7          0.4135   -4.9635    3.4635 H         1 <0>         0.0999
     47 H8          1.1269   -3.4844    2.7691 H         1 <0>         0.0709
     48 H9          0.0424   -1.5387    5.8680 H         1 <0>         0.0993
     49 H10         0.8875   -1.2749    4.3203 H         1 <0>         0.0700
     50 H11        -1.3498   -0.4098    4.0445 H         1 <0>         0.1105
     51 H12        -2.0669   -1.8858    4.7418 H         1 <0>         0.0703
     52 H13         0.5918   -5.8908    4.7565 H         1 <0>         0.1304
     53 H14         1.0170   -7.2543    6.7548 H         1 <0>         0.1329
     54 H15         1.0174   -3.7035    9.1662 H         1 <0>         0.1254
     55 H16         0.6019   -2.3478    7.1605 H         1 <0>         0.1291
     56 H17         4.0134   -5.7455    9.7073 H         1 <0>         0.1296
     57 H18         5.9031   -4.8487   10.9517 H         1 <0>         0.1381
     58 H19         3.3259   -3.7467   14.1731 H         1 <0>         0.1407
     59 H20        -0.6572   -7.9622   10.2790 H         1 <0>         0.1350
     60 H21        -2.9376   -8.6187    9.6404 H         1 <0>         0.1362
     61 H22        -4.4029   -4.8024   10.8980 H         1 <0>         0.1360
     62 H23        -2.1298   -4.1369   11.5531 H         1 <0>         0.1334
     63 H24        -5.5937   -7.4753   10.6044 H         1 <0>         0.3950
     64 H25         5.9901   -2.8089   13.1472 H         1 <0>         0.3962
     65 H26        -0.7622   -1.8907   -2.3762 H         1 <0>         0.0857
     66 H27        -2.1037   -2.9306   -1.8403 H         1 <0>         0.0813
     67 H28        -2.4459   -1.3669   -2.6186 H         1 <0>         0.0819
@<TRIPOS>BOND
     1    1    2 1
     2    1   40 1
     3    1   41 1
     4    1   42 1
     5    2    7 ar
     6    2    3 ar
     7    3    4 ar
     8    3   43 1
     9    4    5 ar
    10    4   39 1
    11    5    6 ar
    12    6    7 ar
    13    6    8 1
    14    8   13 1
    15    8    9 1
    16    9   10 1
    17    9   44 1
    18    9   45 1
    19   10   11 1
    20   10   46 1
    21   10   47 1
    22   11   12 1
    23   11   14 1
    24   12   13 1
    25   12   48 1
    26   12   49 1
    27   13   50 1
    28   13   51 1
    29   14   19 ar
    30   14   15 ar
    31   15   16 ar
    32   15   52 1
    33   16   17 ar
    34   16   53 1
    35   17   18 ar
    36   17   20 1
    37   18   19 ar
    38   18   54 1
    39   19   55 1
    40   20   21 2
    41   20   22 1
    42   22   30 2
    43   22   23 1
    44   23   28 ar
    45   23   24 ar
    46   24   25 ar
    47   24   56 1
    48   25   26 ar
    49   25   57 1
    50   26   27 ar
    51   26   38 1
    52   27   28 ar
    53   27   58 1
    54   28   29 1
    55   29   30 1
    56   30   31 1
    57   31   36 ar
    58   31   32 ar
    59   32   33 ar
    60   32   59 1
    61   33   34 ar
    62   33   60 1
    63   34   35 ar
    64   34   37 1
    65   35   36 ar
    66   35   61 1
    67   36   62 1
    68   37   63 1
    69   38   64 1
    70   39   65 1
    71   39   66 1
    72   39   67 1
@<TRIPOS>MOLECULE
CHEMBL184360
   70    75     0     0     0
SMALL
USER_CHARGES

@<TRIPOS>ATOM
      1 C1          0.3603   -0.1502   -0.8568 C.ar      1 <0>        -0.0874
      2 C2          1.4885    0.6383   -0.9750 C.ar      1 <0>        -0.1389
      3 C3          1.4724    1.9446   -0.5083 C.ar      1 <0>         0.1157
      4 C4          0.3227    2.4558    0.0762 C.ar      1 <0>        -0.1460
      5 C5         -0.8029    1.6633    0.1920 C.ar      1 <0>        -0.0836
      6 C6         -0.7843    0.3616   -0.2739 C.ar      1 <0>        -0.0896
      7 C7         -2.0137   -0.5005   -0.1466 C.3       1 <0>        -0.0641
      8 H1         -2.8832    0.1212    0.0669 H         1 <0>         0.1382
      9 C8         -1.8173   -1.5320    0.9770 C.3       1 <0>         0.1498
     10 H2         -2.6543   -2.2303    0.9812 H         1 <0>         0.0962
     11 O1         -0.6088   -2.2408    0.7495 O.3       1 <0>        -0.3049
     12 C9         -0.3982   -2.9553   -0.3808 C.ar      1 <0>         0.1212
     13 C10         0.5346   -3.9883   -0.3263 C.ar      1 <0>        -0.1140
     14 C11         0.8103   -4.7469   -1.4451 C.ar      1 <0>        -0.1061
     15 C12         0.1595   -4.4878   -2.6425 C.ar      1 <0>         0.0985
     16 C13        -0.7748   -3.4669   -2.7073 C.ar      1 <0>        -0.0901
     17 C14        -1.0579   -2.7077   -1.5795 C.ar      1 <0>        -0.1477
     18 S1         -2.2804   -1.4334   -1.6870 S.3       1 <0>        -0.0843
     19 O2          0.4373   -5.2314   -3.7465 O.3       1 <0>        -0.4915
     20 C15        -1.7456   -0.8232    2.3049 C.ar      1 <0>        -0.1048
     21 C16        -0.5689   -0.2136    2.6992 C.ar      1 <0>        -0.0346
     22 C17        -0.5004    0.4364    3.9163 C.ar      1 <0>        -0.1416
     23 C18        -1.6138    0.4776    4.7429 C.ar      1 <0>         0.1249
     24 C19        -2.7935   -0.1344    4.3448 C.ar      1 <0>        -0.2037
     25 C20        -2.8583   -0.7787    3.1245 C.ar      1 <0>        -0.0588
     26 O3         -1.5489    1.1160    5.9409 O.3       1 <0>        -0.3266
     27 C21        -2.7337    1.1184    6.7398 C.3       1 <0>         0.0277
     28 C22        -2.4698    1.8785    8.0411 C.3       1 <0>        -0.0037
     29 N1         -2.1879    3.2808    7.7378 N.4       1 <0>        -0.3710
     30 C23        -1.7231    3.9935    8.9261 C.3       1 <0>         0.0342
     31 C24        -2.7853    4.0215   10.0161 C.3       1 <0>        -0.1364
     32 C25        -4.0910    4.6283    9.5114 C.3       1 <0>        -0.1370
     33 C26        -4.5125    4.0064    8.1848 C.3       1 <0>        -0.1350
     34 C27        -3.3678    3.9452    7.1878 C.3       1 <0>         0.0279
     35 C28        -2.9856    5.3360    6.6895 C.3       1 <0>        -0.1353
     36 C29        -2.3218    6.1711    7.7755 C.3       1 <0>        -0.1387
     37 C30        -1.2666    5.3979    8.5524 C.3       1 <0>        -0.1367
     38 O4          2.5811    2.7221   -0.6230 O.3       1 <0>        -0.4998
     39 H3          0.3709   -1.1658   -1.2240 H         1 <0>         0.1322
     40 H4          2.3824    0.2379   -1.4300 H         1 <0>         0.1314
     41 H5          0.3078    3.4724    0.4406 H         1 <0>         0.1293
     42 H6         -1.6981    2.0608    0.6469 H         1 <0>         0.1235
     43 H7          1.0472   -4.1973    0.6010 H         1 <0>         0.1413
     44 H8          1.5357   -5.5450   -1.3887 H         1 <0>         0.1429
     45 H9         -1.2839   -3.2608   -3.6372 H         1 <0>         0.1404
     46 H10        -0.1197   -6.0160   -3.8426 H         1 <0>         0.3946
     47 H11         0.2976   -0.2459    2.0553 H         1 <0>         0.1387
     48 H12         0.4191    0.9118    4.2241 H         1 <0>         0.1352
     49 H13        -3.6616   -0.1038    4.9866 H         1 <0>         0.1312
     50 H14        -3.7777   -1.2515    2.8122 H         1 <0>         0.1346
     51 H15        -3.5404    1.6051    6.1919 H         1 <0>         0.0859
     52 H16        -3.0186    0.0918    6.9701 H         1 <0>         0.1099
     53 H17        -3.3481    1.8152    8.6834 H         1 <0>         0.1482
     54 H18        -1.6135    1.4381    8.5520 H         1 <0>         0.1424
     55 H19        -0.8505    3.4493    9.3195 H         1 <0>         0.1306
     56 H20        -2.9673    3.0176   10.4004 H         1 <0>         0.0873
     57 H21        -2.4151    4.6321   10.8521 H         1 <0>         0.1080
     58 H22        -4.8781    4.4156   10.2560 H         1 <0>         0.0865
     59 H23        -4.0159    5.7067    9.4330 H         1 <0>         0.0903
     60 H24        -4.9151    3.0052    8.3609 H         1 <0>         0.0853
     61 H25        -5.3249    4.6103    7.7550 H         1 <0>         0.1082
     62 H26        -3.7036    3.3598    6.3180 H         1 <0>         0.1267
     63 H27        -2.3030    5.2347    5.8393 H         1 <0>         0.0863
     64 H28        -3.8885    5.8482    6.3389 H         1 <0>         0.1098
     65 H29        -1.8216    7.0289    7.2851 H         1 <0>         0.0868
     66 H30        -3.0635    6.6003    8.4444 H         1 <0>         0.0884
     67 H31        -1.0159    5.9465    9.4682 H         1 <0>         0.1108
     68 H32        -0.3530    5.3261    7.9492 H         1 <0>         0.0869
     69 H33         2.6244    3.2262   -1.4470 H         1 <0>         0.3954
     70 H34        -1.4497    3.3161    7.0384 H         1 <0>         0.4290
@<TRIPOS>BOND
     1    1    6 ar
     2    1    2 ar
     3    1   39 1
     4    2    3 ar
     5    2   40 1
     6    3    4 ar
     7    3   38 1
     8    4    5 ar
     9    4   41 1
    10    5    6 ar
    11    5   42 1
    12    6    7 1
    13    7    8 1
    14    7   18 1
    15    7    9 1
    16    9   10 1
    17    9   11 1
    18    9   20 1
    19   11   12 1
    20   12   17 ar
    21   12   13 ar
    22   13   14 ar
    23   13   43 1
    24   14   15 ar
    25   14   44 1
    26   15   16 ar
    27   15   19 1
    28   16   17 ar
    29   16   45 1
    30   17   18 1
    31   19   46 1
    32   20   25 ar
    33   20   21 ar
    34   21   22 ar
    35   21   47 1
    36   22   23 ar
    37   22   48 1
    38   23   24 ar
    39   23   26 1
    40   24   25 ar
    41   24   49 1
    42   25   50 1
    43   26   27 1
    44   27   28 1
    45   27   51 1
    46   27   52 1
    47   28   29 1
    48   28   53 1
    49   28   54 1
    50   29   34 1
    51   29   30 1
    52   29   70 1
    53   30   37 1
    54   30   31 1
    55   30   55 1
    56   31   32 1
    57   31   56 1
    58   31   57 1
    59   32   33 1
    60   32   58 1
    61   32   59 1
    62   33   34 1
    63   33   60 1
    64   33   61 1
    65   34   35 1
    66   34   62 1
    67   35   36 1
    68   35   63 1
    69   35   64 1
    70   36   37 1
    71   36   65 1
    72   36   66 1
    73   37   67 1
    74   37   68 1
    75   38   69 1
@<TRIPOS>MOLECULE
CHEMBL485712
   38    40     0     0     0
SMALL
USER_CHARGES

@<TRIPOS>ATOM
      1 C1          0.1087   -1.0662    0.8117 C.1       1 <0>        -0.1754
      2 C2          0.0940    0.0972    0.6548 C.1       1 <0>        -0.2185
      3 C3          0.0756    1.5558    0.4580 C.3       1 <0>         0.2528
      4 N1          1.4425    2.0369    0.2429 N.pl3     1 <0>        -0.6321
      5 C4          2.3080    2.4416    1.2147 C.2       1 <0>         0.3615
      6 N2          3.4543    2.8224    0.7836 N.2       1 <0>        -0.5545
      7 C5          3.5084    2.7098   -0.6808 C.3       1 <0>         0.1046
      8 C6          2.1184    2.1597   -1.0599 C.3       1 <0>         0.1616
      9 C7          1.3879    3.1325   -1.9494 C.ar      1 <0>        -0.0987
     10 C8          1.1180    2.7977   -3.2635 C.ar      1 <0>        -0.0722
     11 C9          0.4490    3.6877   -4.0810 C.ar      1 <0>        -0.1394
     12 C10         0.0469    4.9188   -3.5829 C.ar      1 <0>         0.1258
     13 C11         0.3179    5.2532   -2.2645 C.ar      1 <0>        -0.1396
     14 C12         0.9833    4.3571   -1.4482 C.ar      1 <0>        -0.0033
     15 Cl1         1.3170    4.7713    0.2043 Cl        1 <0>        -0.0456
     16 O1         -0.6110    5.7958   -4.3859 O.3       1 <0>        -0.4935
     17 C13         4.5862    1.7425   -1.0976 C.ar      1 <0>        -0.0755
     18 C14         4.9742    0.7298   -0.2399 C.ar      1 <0>        -0.0636
     19 C15         5.9622   -0.1579   -0.6193 C.ar      1 <0>        -0.1412
     20 C16         6.5656   -0.0335   -1.8627 C.ar      1 <0>         0.1206
     21 C17         6.1752    0.9825   -2.7222 C.ar      1 <0>        -0.1386
     22 C18         5.1821    1.8657   -2.3403 C.ar      1 <0>        -0.0139
     23 Cl2         4.6873    3.1337   -3.4179 Cl        1 <0>        -0.0563
     24 O2          7.5381   -0.9057   -2.2374 O.3       1 <0>        -0.4935
     25 H1          0.1218   -2.1067    0.9521 H         1 <0>         0.2170
     26 H2         -0.5357    1.7975   -0.4115 H         1 <0>         0.0976
     27 H3         -0.3439    2.0364    1.3419 H         1 <0>         0.1047
     28 H4          2.0495    2.4418    2.2633 H         1 <0>         0.1865
     29 H5          3.6739    3.6872   -1.1339 H         1 <0>         0.1116
     30 H6          2.2057    1.1860   -1.5420 H         1 <0>         0.0937
     31 H7          1.4309    1.8395   -3.6512 H         1 <0>         0.1358
     32 H8          0.2393    3.4256   -5.1075 H         1 <0>         0.1375
     33 H9          0.0059    6.2108   -1.8746 H         1 <0>         0.1407
     34 H10        -1.5729    5.6976   -4.3708 H         1 <0>         0.3958
     35 H11         4.5046    0.6329    0.7278 H         1 <0>         0.1367
     36 H12         6.2651   -0.9482    0.0515 H         1 <0>         0.1357
     37 H13         6.6434    1.0813   -3.6904 H         1 <0>         0.1411
     38 H14         7.2075   -1.6901   -2.6962 H         1 <0>         0.3943
@<TRIPOS>BOND
     1    1    2 3
     2    1   25 1
     3    2    3 1
     4    3    4 1
     5    3   26 1
     6    3   27 1
     7    4    8 1
     8    4    5 1
     9    5    6 2
    10    5   28 1
    11    6    7 1
    12    7    8 1
    13    7   17 1
    14    7   29 1
    15    8    9 1
    16    8   30 1
    17    9   14 ar
    18    9   10 ar
    19   10   11 ar
    20   10   31 1
    21   11   12 ar
    22   11   32 1
    23   12   13 ar
    24   12   16 1
    25   13   14 ar
    26   13   33 1
    27   14   15 1
    28   16   34 1
    29   17   22 ar
    30   17   18 ar
    31   18   19 ar
    32   18   35 1
    33   19   20 ar
    34   19   36 1
    35   20   21 ar
    36   20   24 1
    37   21   22 ar
    38   21   37 1
    39   22   23 1
    40   24   38 1
@<TRIPOS>MOLECULE
CHEMBL485712__1
   38    40     0     0     0
SMALL
USER_CHARGES

@<TRIPOS>ATOM
      1 C1         -0.1191   -0.9641   -1.4333 C.1       1 <0>        -0.1735
      2 C2         -0.1015    0.1869   -1.2029 C.1       1 <0>        -0.2136
      3 C3         -0.0793    1.6301   -0.9139 C.3       1 <0>         0.2529
      4 N1          1.2722    2.0269   -0.5112 N.pl3     1 <0>        -0.6337
      5 C4          1.7244    2.1316    0.7702 C.2       1 <0>         0.3642
      6 N2          2.9490    2.4975    0.8757 N.2       1 <0>        -0.5614
      7 C5          3.5328    2.7056   -0.4570 C.3       1 <0>         0.1043
      8 C6          2.3763    2.3745   -1.4220 C.3       1 <0>         0.1577
      9 C7          2.7310    1.2026   -2.3006 C.ar      1 <0>        -0.0948
     10 C8          3.0353    1.4066   -3.6339 C.ar      1 <0>        -0.0719
     11 C9          3.3604    0.3342   -4.4415 C.ar      1 <0>        -0.1412
     12 C10         3.3821   -0.9491   -3.9142 C.ar      1 <0>         0.1241
     13 C11         3.0771   -1.1523   -2.5766 C.ar      1 <0>        -0.1433
     14 C12         2.7573   -0.0752   -1.7705 C.ar      1 <0>         0.0196
     15 Cl1         2.3822   -0.3270   -0.0943 Cl        1 <0>        -0.0448
     16 O1          3.7013   -2.0054   -4.7074 O.3       1 <0>        -0.4940
     17 C13         4.6881    1.7644   -0.6814 C.ar      1 <0>        -0.0734
     18 C14         4.8584    0.6706    0.1471 C.ar      1 <0>        -0.0589
     19 C15         5.9168   -0.1934   -0.0561 C.ar      1 <0>        -0.1464
     20 C16         6.8098    0.0362   -1.0931 C.ar      1 <0>         0.1201
     21 C17         6.6376    1.1334   -1.9237 C.ar      1 <0>        -0.1439
     22 C18         5.5736    1.9928   -1.7198 C.ar      1 <0>        -0.0064
     23 Cl2         5.3526    3.3627   -2.7630 Cl        1 <0>        -0.0639
     24 O2          7.8519   -0.8126   -1.2942 O.3       1 <0>        -0.4934
     25 H1         -0.1349   -1.9936   -1.6394 H         1 <0>         0.2111
     26 H2         -0.3697    2.1839   -1.8068 H         1 <0>         0.0974
     27 H3         -0.7782    1.8498   -0.1068 H         1 <0>         0.1064
     28 H4          1.1017    1.9234    1.6277 H         1 <0>         0.1865
     29 H5          3.8522    3.7407   -0.5775 H         1 <0>         0.1115
     30 H6          2.1187    3.2453   -2.0249 H         1 <0>         0.0998
     31 H7          3.0185    2.4055   -4.0443 H         1 <0>         0.1343
     32 H8          3.5973    0.4945   -5.4829 H         1 <0>         0.1347
     33 H9          3.0934   -2.1502   -2.1640 H         1 <0>         0.1348
     34 H10         4.6460   -2.2107   -4.7277 H         1 <0>         0.3930
     35 H11         4.1634    0.4919    0.9542 H         1 <0>         0.1455
     36 H12         6.0494   -1.0471    0.5920 H         1 <0>         0.1321
     37 H13         7.3313    1.3141   -2.7314 H         1 <0>         0.1374
     38 H14         7.6522   -1.5459   -1.8921 H         1 <0>         0.3911
@<TRIPOS>BOND
     1    1    2 3
     2    1   25 1
     3    2    3 1
     4    3    4 1
     5    3   26 1
     6    3   27 1
     7    4    8 1
     8    4    5 1
     9    5    6 2
    10    5   28 1
    11    6    7 1
    12    7    8 1
    13    7   17 1
    14    7   29 1
    15    8    9 1
    16    8   30 1
    17    9   14 ar
    18    9   10 ar
    19   10   11 ar
    20   10   31 1
    21   11   12 ar
    22   11   32 1
    23   12   13 ar
    24   12   16 1
    25   13   14 ar
    26   13   33 1
    27   14   15 1
    28   16   34 1
    29   17   22 ar
    30   17   18 ar
    31   18   19 ar
    32   18   35 1
    33   19   20 ar
    34   19   36 1
    35   20   21 ar
    36   20   24 1
    37   21   22 ar
    38   21   37 1
    39   22   23 1
    40   24   38 1
@<TRIPOS>MOLECULE
CHEMBL485712__2
   38    40     0     0     0
SMALL
USER_CHARGES

@<TRIPOS>ATOM
      1 C1          0.2270    0.2422    2.1147 C.1       1 <0>        -0.1704
      2 C2          0.5502    1.3174    1.7713 C.1       1 <0>        -0.2225
      3 C3          0.9554    2.6654    1.3408 C.3       1 <0>         0.2496
      4 N1          2.1420    2.5693    0.4870 N.pl3     1 <0>        -0.6344
      5 C4          3.4362    2.6006    0.9131 C.2       1 <0>         0.3526
      6 N2          4.3084    2.4991   -0.0216 N.2       1 <0>        -0.5560
      7 C5          3.6421    2.3741   -1.3256 C.3       1 <0>         0.1010
      8 C6          2.1402    2.4158   -0.9779 C.3       1 <0>         0.1556
      9 C7          1.4762    3.5975   -1.6364 C.ar      1 <0>        -0.0934
     10 C8          1.5038    4.8358   -1.0219 C.ar      1 <0>        -0.0712
     11 C9          0.8956    5.9205   -1.6231 C.ar      1 <0>        -0.1380
     12 C10         0.2565    5.7675   -2.8453 C.ar      1 <0>         0.1265
     13 C11         0.2299    4.5250   -3.4608 C.ar      1 <0>        -0.1356
     14 C12         0.8446    3.4430   -2.8578 C.ar      1 <0>        -0.0052
     15 Cl1         0.8183    1.8886   -3.6304 Cl        1 <0>        -0.0527
     16 O1         -0.3428    6.8335   -3.4380 O.3       1 <0>        -0.4943
     17 C13         4.0149    3.5261   -2.2228 C.ar      1 <0>        -0.0653
     18 C14         4.2958    4.7644   -1.6756 C.ar      1 <0>        -0.0610
     19 C15         4.6373    5.8221   -2.4958 C.ar      1 <0>        -0.1422
     20 C16         4.6990    5.6417   -3.8702 C.ar      1 <0>         0.1196
     21 C17         4.4175    4.3990   -4.4178 C.ar      1 <0>        -0.1390
     22 C18         4.0811    3.3416   -3.5925 C.ar      1 <0>        -0.0081
     23 Cl2         3.7353    1.7836   -4.2758 Cl        1 <0>        -0.0554
     24 O2          5.0344    6.6813   -4.6787 O.3       1 <0>        -0.4954
     25 H1         -0.0621   -0.7194    2.4218 H         1 <0>         0.2179
     26 H2          0.1421    3.1281    0.7817 H         1 <0>         0.1011
     27 H3          1.1859    3.2725    2.2163 H         1 <0>         0.1070
     28 H4          3.7055    2.7027    1.9540 H         1 <0>         0.1920
     29 H5          3.8960    1.4240   -1.7956 H         1 <0>         0.1113
     30 H6          1.6499    1.4863   -1.2673 H         1 <0>         0.1011
     31 H7          2.0012    4.9550   -0.0707 H         1 <0>         0.1338
     32 H8          0.9171    6.8872   -1.1420 H         1 <0>         0.1353
     33 H9         -0.2668    4.4035   -4.4120 H         1 <0>         0.1401
     34 H10         0.2379    7.3334   -4.0279 H         1 <0>         0.3962
     35 H11         4.2477    4.9050   -0.6059 H         1 <0>         0.1326
     36 H12         4.8558    6.7892   -2.0675 H         1 <0>         0.1335
     37 H13         4.4649    4.2561   -5.4872 H         1 <0>         0.1388
     38 H14         5.9838    6.7597   -4.8452 H         1 <0>         0.3947
@<TRIPOS>BOND
     1    1    2 3
     2    1   25 1
     3    2    3 1
     4    3    4 1
     5    3   26 1
     6    3   27 1
     7    4    8 1
     8    4    5 1
     9    5    6 2
    10    5   28 1
    11    6    7 1
    12    7    8 1
    13    7   17 1
    14    7   29 1
    15    8    9 1
    16    8   30 1
    17    9   14 ar
    18    9   10 ar
    19   10   11 ar
    20   10   31 1
    21   11   12 ar
    22   11   32 1
    23   12   13 ar
    24   12   16 1
    25   13   14 ar
    26   13   33 1
    27   14   15 1
    28   16   34 1
    29   17   22 ar
    30   17   18 ar
    31   18   19 ar
    32   18   35 1
    33   19   20 ar
    34   19   36 1
    35   20   21 ar
    36   20   24 1
    37   21   22 ar
    38   21   37 1
    39   22   23 1
    40   24   38 1
@<TRIPOS>MOLECULE
CHEMBL485712__3
   38    40     0     0     0
SMALL
USER_CHARGES

@<TRIPOS>ATOM
      1 C1          1.3242   -1.2321    1.4240 C.1       1 <0>        -0.1739
      2 C2          1.1075   -0.0818    1.3338 C.1       1 <0>        -0.2154
      3 C3          0.8358    1.3605    1.2206 C.3       1 <0>         0.2493
      4 N1          1.9563    2.0168    0.5423 N.pl3     1 <0>        -0.6348
      5 C4          3.1111    2.4359    1.1323 C.2       1 <0>         0.3524
      6 N2          3.9499    2.9854    0.3328 N.2       1 <0>        -0.5560
      7 C5          3.4090    3.0067   -1.0336 C.3       1 <0>         0.1028
      8 C6          2.0298    2.3307   -0.8948 C.3       1 <0>         0.1549
      9 C7          1.9659    1.0707   -1.7192 C.ar      1 <0>        -0.1006
     10 C8          2.5409   -0.0940   -1.2455 C.ar      1 <0>        -0.0619
     11 C9          2.4842   -1.2502   -1.9992 C.ar      1 <0>        -0.1414
     12 C10         1.8491   -1.2428   -3.2330 C.ar      1 <0>         0.1261
     13 C11         1.2724   -0.0739   -3.7068 C.ar      1 <0>        -0.1408
     14 C12         1.3270    1.0799   -2.9465 C.ar      1 <0>        -0.0023
     15 Cl1         0.5994    2.5420   -3.5350 Cl        1 <0>        -0.0518
     16 O1          1.7927   -2.3792   -3.9761 O.3       1 <0>        -0.4934
     17 C13         3.2622    4.4246   -1.5225 C.ar      1 <0>        -0.0754
     18 C14         3.0514    5.4485   -0.6175 C.ar      1 <0>        -0.0647
     19 C15         2.9161    6.7489   -1.0629 C.ar      1 <0>        -0.1423
     20 C16         2.9922    7.0283   -2.4200 C.ar      1 <0>         0.1217
     21 C17         3.2041    6.0004   -3.3266 C.ar      1 <0>        -0.1395
     22 C18         3.3442    4.7007   -2.8758 C.ar      1 <0>        -0.0071
     23 Cl2         3.6166    3.4139   -4.0088 Cl        1 <0>        -0.0541
     24 O2          2.8588    8.3071   -2.8600 O.3       1 <0>        -0.4945
     25 H1          1.5180   -2.2609    1.5047 H         1 <0>         0.2161
     26 H2         -0.0773    1.5142    0.6456 H         1 <0>         0.1018
     27 H3          0.7141    1.7865    2.2165 H         1 <0>         0.1063
     28 H4          3.3044    2.3149    2.1880 H         1 <0>         0.1917
     29 H5          4.0463    2.4329   -1.7065 H         1 <0>         0.1099
     30 H6          1.2347    3.0196   -1.1799 H         1 <0>         0.1032
     31 H7          3.0353   -0.0998   -0.2853 H         1 <0>         0.1343
     32 H8          2.9343   -2.1593   -1.6287 H         1 <0>         0.1348
     33 H9          0.7775   -0.0658   -4.6667 H         1 <0>         0.1412
     34 H10         1.0147   -2.9259   -3.8004 H         1 <0>         0.3952
     35 H11         2.9922    5.2311    0.4388 H         1 <0>         0.1364
     36 H12         2.7507    7.5479   -0.3553 H         1 <0>         0.1360
     37 H13         3.2637    6.2154   -4.3833 H         1 <0>         0.1406
     38 H14         3.6929    8.7933   -2.9145 H         1 <0>         0.3953
@<TRIPOS>BOND
     1    1    2 3
     2    1   25 1
     3    2    3 1
     4    3    4 1
     5    3   26 1
     6    3   27 1
     7    4    8 1
     8    4    5 1
     9    5    6 2
    10    5   28 1
    11    6    7 1
    12    7    8 1
    13    7   17 1
    14    7   29 1
    15    8    9 1
    16    8   30 1
    17    9   14 ar
    18    9   10 ar
    19   10   11 ar
    20   10   31 1
    21   11   12 ar
    22   11   32 1
    23   12   13 ar
    24   12   16 1
    25   13   14 ar
    26   13   33 1
    27   14   15 1
    28   16   34 1
    29   17   22 ar
    30   17   18 ar
    31   18   19 ar
    32   18   35 1
    33   19   20 ar
    34   19   36 1
    35   20   21 ar
    36   20   24 1
    37   21   22 ar
    38   21   37 1
    39   22   23 1
    40   24   38 1
@<TRIPOS>MOLECULE
CHEMBL100484
   44    48     0     0     0
SMALL
USER_CHARGES

@<TRIPOS>ATOM
      1 C1         -0.0414    1.3334   -0.0343 C.ar      1 <0>        -0.1167
      2 C2          1.1370    2.0760   -0.0403 C.ar      1 <0>        -0.1100
      3 C3          2.3528    1.4605   -0.0417 C.ar      1 <0>        -0.1078
      4 C4          2.4222    0.0610   -0.0371 C.ar      1 <0>        -0.0232
      5 C5          1.2255   -0.6960   -0.0309 C.ar      1 <0>        -0.0503
      6 C6         -0.0112   -0.0277   -0.0297 C.ar      1 <0>        -0.1026
      7 C7          1.2938   -2.0999   -0.0249 C.ar      1 <0>        -0.0944
      8 C8          2.5046   -2.7260   -0.0245 C.ar      1 <0>        -0.1143
      9 C9          3.6890   -2.0008   -0.0304 C.ar      1 <0>        -0.0814
     10 C10         3.6689   -0.6135   -0.0379 C.ar      1 <0>        -0.0209
     11 C11         4.9307    0.1508   -0.0448 C.2       1 <0>        -0.0159
     12 C12         5.6976    0.6113    1.1219 C.ar      1 <0>        -0.1429
     13 C13         5.5200    0.4993    2.5018 C.ar      1 <0>        -0.0332
     14 C14         6.4358    1.0510    3.3512 C.ar      1 <0>        -0.1585
     15 C15         7.5463    1.7248    2.8469 C.ar      1 <0>         0.1545
     16 C16         7.7367    1.8451    1.4816 C.ar      1 <0>        -0.1450
     17 C17         6.8149    1.2893    0.6032 C.ar      1 <0>         0.0924
     18 O1          6.7428    1.2500   -0.7425 O.3       1 <0>        -0.1705
     19 C18         5.6454    0.5805   -1.1540 C.2       1 <0>        -0.0421
     20 C19         5.2790    0.3551   -2.5052 C.2       1 <0>         0.4588
     21 O2          4.3139   -0.3406   -2.7667 O.2       1 <0>        -0.3911
     22 C20         6.0683    0.9643   -3.5965 C.ar      1 <0>        -0.1614
     23 C21         7.2443    1.6602   -3.3078 C.ar      1 <0>        -0.0610
     24 C22         7.9758    2.2262   -4.3305 C.ar      1 <0>        -0.1289
     25 C23         7.5474    2.1067   -5.6415 C.ar      1 <0>        -0.0721
     26 C24         6.3841    1.4193   -5.9360 C.ar      1 <0>        -0.1264
     27 C25         5.6444    0.8419   -4.9224 C.ar      1 <0>         0.0164
     28 Cl1         4.1881   -0.0269   -5.2939 Cl        1 <0>        -0.0320
     29 O3          8.4494    2.2689    3.7029 O.3       1 <0>        -0.4902
     30 H1         -0.9927    1.8447   -0.0287 H         1 <0>         0.1246
     31 H2          1.0864    3.1548   -0.0443 H         1 <0>         0.1232
     32 H3          3.2586    2.0487   -0.0468 H         1 <0>         0.1188
     33 H4         -0.9326   -0.5911   -0.0248 H         1 <0>         0.1290
     34 H5          0.3852   -2.6837   -0.0203 H         1 <0>         0.1292
     35 H6          2.5435   -3.8053   -0.0191 H         1 <0>         0.1279
     36 H7          4.6350   -2.5219   -0.0296 H         1 <0>         0.1234
     37 H8          4.6604   -0.0219    2.8966 H         1 <0>         0.1373
     38 H9          6.2986    0.9649    4.4190 H         1 <0>         0.1420
     39 H10         8.6000    2.3698    1.0997 H         1 <0>         0.1447
     40 H11         7.5798    1.7552   -2.2857 H         1 <0>         0.1527
     41 H12         8.8853    2.7645   -4.1081 H         1 <0>         0.1375
     42 H13         8.1243    2.5528   -6.4381 H         1 <0>         0.1393
     43 H14         6.0558    1.3300   -6.9610 H         1 <0>         0.1418
     44 H15         9.1685    1.6707    3.9484 H         1 <0>         0.3992
@<TRIPOS>BOND
     1    1    6 ar
     2    1    2 ar
     3    1   30 1
     4    2    3 ar
     5    2   31 1
     6    3    4 ar
     7    3   32 1
     8    4   10 ar
     9    4    5 ar
    10    5    6 ar
    11    5    7 ar
    12    6   33 1
    13    7    8 ar
    14    7   34 1
    15    8    9 ar
    16    8   35 1
    17    9   10 ar
    18    9   36 1
    19   10   11 1
    20   11   19 2
    21   11   12 1
    22   12   17 ar
    23   12   13 ar
    24   13   14 ar
    25   13   37 1
    26   14   15 ar
    27   14   38 1
    28   15   16 ar
    29   15   29 1
    30   16   17 ar
    31   16   39 1
    32   17   18 1
    33   18   19 1
    34   19   20 1
    35   20   21 2
    36   20   22 1
    37   22   27 ar
    38   22   23 ar
    39   23   24 ar
    40   23   40 1
    41   24   25 ar
    42   24   41 1
    43   25   26 ar
    44   25   42 1
    45   26   27 ar
    46   26   43 1
    47   27   28 1
    48   29   44 1
@<TRIPOS>MOLECULE
CHEMBL94280
   66    70     0     0     0
SMALL
USER_CHARGES

@<TRIPOS>ATOM
      1 C1          0.0889    1.6664    0.3452 C.ar      1 <0>        -0.0816
      2 C2          1.3056    2.3223    0.3336 C.ar      1 <0>        -0.1127
      3 C3          2.4801    1.5987    0.2453 C.ar      1 <0>        -0.1010
      4 C4          2.4379    0.2191    0.1693 C.ar      1 <0>        -0.1609
      5 C5          1.2212   -0.4369    0.1818 C.ar      1 <0>        -0.0923
      6 C6          0.0466    0.2868    0.2686 C.ar      1 <0>        -0.1090
      7 C7          3.7183   -0.5698    0.0721 C.3       1 <0>         0.0448
      8 N1          4.1911   -0.9040    1.4222 N.4       1 <0>        -0.3765
      9 C8          4.5598    0.3292    2.1339 C.3       1 <0>        -0.0244
     10 C9          4.7510   -0.0010    3.6147 C.3       1 <0>        -0.1060
     11 C10         5.6809   -1.1788    3.7588 C.ar      1 <0>        -0.0696
     12 C11         6.2555   -1.4231    4.9954 C.ar      1 <0>        -0.1361
     13 C12         7.1123   -2.4983    5.1671 C.ar      1 <0>         0.1462
     14 C13         7.3938   -3.3315    4.0938 C.ar      1 <0>        -0.1352
     15 C14         6.8210   -3.0837    2.8639 C.ar      1 <0>        -0.0651
     16 C15         5.9639   -2.0061    2.6922 C.ar      1 <0>        -0.1408
     17 C16         5.3690   -1.7712    1.3286 C.3       1 <0>         0.1369
     18 C17         6.3983   -1.1172    0.4432 C.ar      1 <0>        -0.1669
     19 C18         6.5132   -1.4998   -0.8805 C.ar      1 <0>        -0.0496
     20 C19         7.4563   -0.9022   -1.6941 C.ar      1 <0>        -0.1366
     21 C20         8.2881    0.0829   -1.1820 C.ar      1 <0>         0.1517
     22 C21         8.1705    0.4654    0.1463 C.ar      1 <0>        -0.2004
     23 C22         7.2223   -0.1316    0.9544 C.ar      1 <0>        -0.0515
     24 O1          9.2169    0.6720   -1.9802 O.3       1 <0>        -0.3213
     25 C23        10.0388    1.6785   -1.3856 C.3       1 <0>         0.0254
     26 C24        11.0159    2.2218   -2.4301 C.3       1 <0>         0.0022
     27 N2         10.2668    2.9085   -3.4909 N.4       1 <0>        -0.3964
     28 C25         9.6560    4.1548   -2.9621 C.3       1 <0>        -0.0106
     29 C26         9.4200    5.0027   -4.2372 C.3       1 <0>        -0.1447
     30 C27        10.6628    4.6835   -5.0995 C.3       1 <0>        -0.1460
     31 C28        11.1848    3.3354   -4.5691 C.3       1 <0>        -0.0092
     32 O2          7.6750   -2.7355    6.3811 O.3       1 <0>        -0.4937
     33 H1         -0.8285    2.2315    0.4186 H         1 <0>         0.1378
     34 H2          1.3386    3.4002    0.3930 H         1 <0>         0.1360
     35 H3          3.4307    2.1112    0.2355 H         1 <0>         0.1268
     36 H4          1.1882   -1.5148    0.1220 H         1 <0>         0.1325
     37 H5         -0.9040   -0.2257    0.2781 H         1 <0>         0.1385
     38 H6          3.5379   -1.4877   -0.4873 H         1 <0>         0.1371
     39 H7          4.4738    0.0256   -0.4405 H         1 <0>         0.1332
     40 H8          5.4893    0.7244    1.7241 H         1 <0>         0.1340
     41 H9          3.7651    1.0671    2.0233 H         1 <0>         0.1408
     42 H10         5.1773    0.8619    4.1264 H         1 <0>         0.1244
     43 H11         3.7861   -0.2446    4.0593 H         1 <0>         0.1086
     44 H12         6.0344   -0.7731    5.8291 H         1 <0>         0.1428
     45 H13         8.0601   -4.1719    4.2212 H         1 <0>         0.1443
     46 H14         7.0406   -3.7328    2.0291 H         1 <0>         0.1373
     47 H15         5.0776   -2.7274    0.8941 H         1 <0>         0.1507
     48 H16         5.8654   -2.2668   -1.2786 H         1 <0>         0.1461
     49 H17         7.5462   -1.2020   -2.7277 H         1 <0>         0.1471
     50 H18         8.8169    1.2321    0.5473 H         1 <0>         0.1392
     51 H19         7.1274    0.1688    1.9874 H         1 <0>         0.1400
     52 H20         9.4108    2.4903   -1.0186 H         1 <0>         0.0892
     53 H21        10.5976    1.2473   -0.5550 H         1 <0>         0.1129
     54 H22        11.7010    2.9245   -1.9559 H         1 <0>         0.1533
     55 H23        11.5827    1.3967   -2.8613 H         1 <0>         0.1444
     56 H24         8.7111    3.9387   -2.4635 H         1 <0>         0.1300
     57 H25        10.3425    4.6622   -2.2844 H         1 <0>         0.1363
     58 H26         8.5076    4.6900   -4.7450 H         1 <0>         0.0981
     59 H27         9.3823    6.0643   -3.9930 H         1 <0>         0.1191
     60 H28        10.3822    4.5941   -6.1490 H         1 <0>         0.1078
     61 H29        11.4194    5.4580   -4.9740 H         1 <0>         0.1069
     62 H30        12.1925    3.4577   -4.1720 H         1 <0>         0.1336
     63 H31        11.1857    2.5963   -5.3703 H         1 <0>         0.1349
     64 H32         7.1518   -3.3161    6.9505 H         1 <0>         0.4072
     65 H33         9.5526    2.3003   -3.8626 H         1 <0>         0.4314
     66 H34         3.4598   -1.3813    1.9275 H         1 <0>         0.4288
@<TRIPOS>BOND
     1    1    6 ar
     2    1    2 ar
     3    1   33 1
     4    2    3 ar
     5    2   34 1
     6    3    4 ar
     7    3   35 1
     8    4    5 ar
     9    4    7 1
    10    5    6 ar
    11    5   36 1
    12    6   37 1
    13    7    8 1
    14    7   38 1
    15    7   39 1
    16    8   17 1
    17    8    9 1
    18    8   66 1
    19    9   10 1
    20    9   40 1
    21    9   41 1
    22   10   11 1
    23   10   42 1
    24   10   43 1
    25   11   16 ar
    26   11   12 ar
    27   12   13 ar
    28   12   44 1
    29   13   14 ar
    30   13   32 1
    31   14   15 ar
    32   14   45 1
    33   15   16 ar
    34   15   46 1
    35   16   17 1
    36   17   18 1
    37   17   47 1
    38   18   23 ar
    39   18   19 ar
    40   19   20 ar
    41   19   48 1
    42   20   21 ar
    43   20   49 1
    44   21   22 ar
    45   21   24 1
    46   22   23 ar
    47   22   50 1
    48   23   51 1
    49   24   25 1
    50   25   26 1
    51   25   52 1
    52   25   53 1
    53   26   27 1
    54   26   54 1
    55   26   55 1
    56   27   31 1
    57   27   28 1
    58   27   65 1
    59   28   29 1
    60   28   56 1
    61   28   57 1
    62   29   30 1
    63   29   58 1
    64   29   59 1
    65   30   31 1
    66   30   60 1
    67   30   61 1
    68   31   62 1
    69   31   63 1
    70   32   64 1
@<TRIPOS>MOLECULE
CHEMBL94280__1
   65    69     0     0     0
SMALL
USER_CHARGES

@<TRIPOS>ATOM
      1 C1          0.1786    1.8435    0.5620 C.ar      1 <0>        -0.1159
      2 C2          1.4128    2.4661    0.5591 C.ar      1 <0>        -0.1198
      3 C3          2.5655    1.7150    0.4258 C.ar      1 <0>        -0.1165
      4 C4          2.4841    0.3412    0.2957 C.ar      1 <0>        -0.0829
      5 C5          1.2500   -0.2815    0.2995 C.ar      1 <0>        -0.0972
      6 C6          0.0971    0.4698    0.4314 C.ar      1 <0>        -0.1181
      7 C7          3.7408   -0.4776    0.1494 C.3       1 <0>         0.0956
      8 N1          4.2218   -0.8783    1.4783 N.3       1 <0>        -0.5080
      9 C8          4.6765    0.2900    2.2489 C.3       1 <0>         0.0310
     10 C9          4.8130   -0.1192    3.7157 C.3       1 <0>        -0.0798
     11 C10         5.6301   -1.3812    3.8238 C.ar      1 <0>        -0.0459
     12 C11         6.1660   -1.7167    5.0572 C.ar      1 <0>        -0.1473
     13 C12         6.9201   -2.8696    5.2014 C.ar      1 <0>         0.1138
     14 C13         7.1374   -3.6909    4.1043 C.ar      1 <0>        -0.1482
     15 C14         6.6035   -3.3530    2.8784 C.ar      1 <0>        -0.0906
     16 C15         5.8505   -2.1963    2.7338 C.ar      1 <0>        -0.0848
     17 C16         5.2994   -1.8667    1.3711 C.3       1 <0>         0.1680
     18 C17         6.4029   -1.3079    0.5103 C.ar      1 <0>        -0.1324
     19 C18         7.2926   -0.3904    1.0380 C.ar      1 <0>        -0.0616
     20 C19         8.3048    0.1236    0.2508 C.ar      1 <0>        -0.1411
     21 C20         8.4284   -0.2818   -1.0702 C.ar      1 <0>         0.1160
     22 C21         7.5347   -1.2028   -1.5972 C.ar      1 <0>        -0.2010
     23 C22         6.5275   -1.7178   -0.8044 C.ar      1 <0>        -0.0658
     24 O1          9.4230    0.2228   -1.8468 O.3       1 <0>        -0.3285
     25 C23         9.4897   -0.2398   -3.1972 C.3       1 <0>         0.0274
     26 C24        10.6640    0.4341   -3.9097 C.3       1 <0>         0.0039
     27 N2         11.9246    0.0052   -3.2893 N.4       1 <0>        -0.3958
     28 C25        12.1734   -1.4310   -3.5751 C.3       1 <0>        -0.0104
     29 C26        13.7037   -1.5718   -3.3781 C.3       1 <0>        -0.1447
     30 C27        14.2491   -0.2412   -3.9457 C.3       1 <0>        -0.1450
     31 C28        13.0621    0.7380   -3.8862 C.3       1 <0>        -0.0087
     32 O2          7.4452   -3.1947    6.4120 O.3       1 <0>        -0.5001
     33 H1         -0.7218    2.4300    0.6707 H         1 <0>         0.1229
     34 H2          1.4764    3.5395    0.6607 H         1 <0>         0.1219
     35 H3          3.5298    2.2015    0.4228 H         1 <0>         0.1158
     36 H4          1.1864   -1.3548    0.1975 H         1 <0>         0.1223
     37 H5         -0.8671   -0.0167    0.4340 H         1 <0>         0.1237
     38 H6          3.5278   -1.3672   -0.4434 H         1 <0>         0.0835
     39 H7          4.5058    0.1170   -0.3499 H         1 <0>         0.0457
     40 H8          5.6424    0.6247    1.8707 H         1 <0>         0.0511
     41 H9          3.9464    1.0944    2.1595 H         1 <0>         0.0906
     42 H10         5.3057    0.6796    4.2699 H         1 <0>         0.0817
     43 H11         3.8226   -0.2922    4.1367 H         1 <0>         0.0899
     44 H12         5.9951   -1.0760    5.9097 H         1 <0>         0.1301
     45 H13         7.7233   -4.5920    4.2100 H         1 <0>         0.1294
     46 H14         6.7729   -3.9928    2.0250 H         1 <0>         0.1240
     47 H15         4.9101   -2.7750    0.9112 H         1 <0>         0.1031
     48 H16         7.1959   -0.0752    2.0664 H         1 <0>         0.1373
     49 H17         8.9990    0.8407    0.6633 H         1 <0>         0.1324
     50 H18         7.6289   -1.5200   -2.6253 H         1 <0>         0.1278
     51 H19         5.8342   -2.4381   -1.2129 H         1 <0>         0.1312
     52 H20         9.6320   -1.3204   -3.2045 H         1 <0>         0.0852
     53 H21         8.5616    0.0079   -3.7123 H         1 <0>         0.1079
     54 H22        10.6619    0.1501   -4.9620 H         1 <0>         0.1487
     55 H23        10.5674    1.5165   -3.8253 H         1 <0>         0.1411
     56 H24        11.6349   -2.0628   -2.8687 H         1 <0>         0.1331
     57 H25        11.8936   -1.6734   -4.6003 H         1 <0>         0.1349
     58 H26        13.9492   -1.6694   -2.3206 H         1 <0>         0.0984
     59 H27        14.0892   -2.4195   -3.9445 H         1 <0>         0.1175
     60 H28        15.0717    0.1236   -3.3305 H         1 <0>         0.1058
     61 H29        14.5773   -0.3758   -4.9764 H         1 <0>         0.1046
     62 H30        12.8036    1.0696   -4.8919 H         1 <0>         0.1315
     63 H31        13.3189    1.5955   -3.2642 H         1 <0>         0.1329
     64 H32         6.8652   -3.7431    6.9578 H         1 <0>         0.3948
     65 H33        11.8937    0.1624   -2.2931 H         1 <0>         0.4336
@<TRIPOS>BOND
     1    1    6 ar
     2    1    2 ar
     3    1   33 1
     4    2    3 ar
     5    2   34 1
     6    3    4 ar
     7    3   35 1
     8    4    5 ar
     9    4    7 1
    10    5    6 ar
    11    5   36 1
    12    6   37 1
    13    7    8 1
    14    7   38 1
    15    7   39 1
    16    8   17 1
    17    8    9 1
    18    9   10 1
    19    9   40 1
    20    9   41 1
    21   10   11 1
    22   10   42 1
    23   10   43 1
    24   11   16 ar
    25   11   12 ar
    26   12   13 ar
    27   12   44 1
    28   13   14 ar
    29   13   32 1
    30   14   15 ar
    31   14   45 1
    32   15   16 ar
    33   15   46 1
    34   16   17 1
    35   17   18 1
    36   17   47 1
    37   18   23 ar
    38   18   19 ar
    39   19   20 ar
    40   19   48 1
    41   20   21 ar
    42   20   49 1
    43   21   22 ar
    44   21   24 1
    45   22   23 ar
    46   22   50 1
    47   23   51 1
    48   24   25 1
    49   25   26 1
    50   25   52 1
    51   25   53 1
    52   26   27 1
    53   26   54 1
    54   26   55 1
    55   27   31 1
    56   27   28 1
    57   27   65 1
    58   28   29 1
    59   28   56 1
    60   28   57 1
    61   29   30 1
    62   29   58 1
    63   29   59 1
    64   30   31 1
    65   30   60 1
    66   30   61 1
    67   31   62 1
    68   31   63 1
    69   32   64 1
@<TRIPOS>MOLECULE
CHEMBL94280__2
   66    70     0     0     0
SMALL
USER_CHARGES

@<TRIPOS>ATOM
      1 C1         -0.0167    1.3781    0.0096 C.ar      1 <0>        -0.0813
      2 C2          1.1709    2.0855    0.0021 C.ar      1 <0>        -0.1094
      3 C3          2.3773    1.4107   -0.0130 C.ar      1 <0>        -0.0979
      4 C4          2.3960    0.0285   -0.0201 C.ar      1 <0>        -0.1615
      5 C5          1.2084   -0.6789   -0.0117 C.ar      1 <0>        -0.0957
      6 C6          0.0021   -0.0041    0.0020 C.ar      1 <0>        -0.1122
      7 C7          3.7112   -0.7071   -0.0376 C.3       1 <0>         0.0439
      8 N1          4.1530   -0.9531    1.3416 N.4       1 <0>        -0.3806
      9 C8          4.4454    0.3289    2.0008 C.3       1 <0>        -0.0112
     10 C9          4.6016    0.0810    3.5017 C.3       1 <0>        -0.1067
     11 C10         5.5753   -1.0462    3.7339 C.ar      1 <0>        -0.0646
     12 C11         6.1187   -1.2035    4.9985 C.ar      1 <0>        -0.1350
     13 C12         7.0148   -2.2296    5.2507 C.ar      1 <0>         0.1469
     14 C13         7.3665   -3.1018    4.2304 C.ar      1 <0>        -0.1376
     15 C14         6.8239   -2.9410    2.9726 C.ar      1 <0>        -0.0659
     16 C15         5.9281   -1.9119    2.7200 C.ar      1 <0>        -0.1417
     17 C16         5.3690   -1.7712    1.3286 C.3       1 <0>         0.1396
     18 C17         5.0425   -3.1378    0.7838 C.ar      1 <0>        -0.1569
     19 C18         3.8564   -3.7555    1.1351 C.ar      1 <0>        -0.0729
     20 C19         3.5550   -5.0084    0.6374 C.ar      1 <0>        -0.1277
     21 C20         4.4434   -5.6468   -0.2158 C.ar      1 <0>         0.1455
     22 C21         5.6326   -5.0247   -0.5671 C.ar      1 <0>        -0.1920
     23 C22         5.9270   -3.7695   -0.0709 C.ar      1 <0>        -0.0463
     24 O1          4.1494   -6.8796   -0.7064 O.3       1 <0>        -0.3221
     25 C23         5.1104   -7.4766   -1.5794 C.3       1 <0>         0.0252
     26 C24         4.6088   -8.8512   -2.0263 C.3       1 <0>         0.0023
     27 N2          3.3947   -8.6895   -2.8373 N.4       1 <0>        -0.3964
     28 C25         3.7269   -8.0457   -4.1340 C.3       1 <0>        -0.0107
     29 C26         2.5425   -8.4533   -5.0459 C.3       1 <0>        -0.1447
     30 C27         2.2441   -9.9026   -4.5979 C.3       1 <0>        -0.1461
     31 C28         2.8286  -10.0129   -3.1775 C.3       1 <0>        -0.0090
     32 O2          7.5467   -2.3815    6.4920 O.3       1 <0>        -0.4919
     33 H1         -0.9591    1.9053    0.0259 H         1 <0>         0.1379
     34 H2          1.1563    3.1654    0.0076 H         1 <0>         0.1389
     35 H3          3.3051    1.9634   -0.0196 H         1 <0>         0.1334
     36 H4          1.2231   -1.7588   -0.0176 H         1 <0>         0.1270
     37 H5         -0.9258   -0.5567    0.0082 H         1 <0>         0.1361
     38 H6          3.5884   -1.6586   -0.5549 H         1 <0>         0.1344
     39 H7          4.4573   -0.1052   -0.5563 H         1 <0>         0.1382
     40 H8          5.3704    0.7438    1.6002 H         1 <0>         0.1364
     41 H9          3.6244    1.0248    1.8283 H         1 <0>         0.1432
     42 H10         4.9738    0.9861    3.9817 H         1 <0>         0.1288
     43 H11         3.6337   -0.1824    3.9281 H         1 <0>         0.1055
     44 H12         5.8429   -0.5234    5.7908 H         1 <0>         0.1440
     45 H13         8.0638   -3.9043    4.4206 H         1 <0>         0.1426
     46 H14         7.0981   -3.6204    2.1791 H         1 <0>         0.1333
     47 H15         6.1135   -1.2982    0.6882 H         1 <0>         0.1505
     48 H16         3.1652   -3.2582    1.7993 H         1 <0>         0.1294
     49 H17         2.6287   -5.4908    0.9126 H         1 <0>         0.1456
     50 H18         6.3258   -5.5195   -1.2311 H         1 <0>         0.1416
     51 H19         6.8506   -3.2829   -0.3475 H         1 <0>         0.1439
     52 H20         5.2527   -6.8401   -2.4527 H         1 <0>         0.0902
     53 H21         6.0585   -7.5891   -1.0534 H         1 <0>         0.1132
     54 H22         5.3792   -9.3437   -2.6196 H         1 <0>         0.1534
     55 H23         4.3820   -9.4579   -1.1496 H         1 <0>         0.1438
     56 H24         3.7732   -6.9622   -4.0248 H         1 <0>         0.1307
     57 H25         4.6664   -8.4343   -4.5269 H         1 <0>         0.1365
     58 H26         1.6805   -7.8099   -4.8694 H         1 <0>         0.0980
     59 H27         2.8366   -8.4268   -6.0951 H         1 <0>         0.1193
     60 H28         1.1686  -10.0790   -4.5792 H         1 <0>         0.1075
     61 H29         2.7332  -10.6129   -5.2645 H         1 <0>         0.1069
     62 H30         3.6135  -10.7689   -3.1566 H         1 <0>         0.1335
     63 H31         2.0405  -10.2724   -2.4707 H         1 <0>         0.1344
     64 H32         7.0304   -2.9563    7.0735 H         1 <0>         0.4053
     65 H33         2.7133   -8.1375   -2.3382 H         1 <0>         0.4311
     66 H34         3.4263   -1.4365    1.8479 H         1 <0>         0.4195
@<TRIPOS>BOND
     1    1    6 ar
     2    1    2 ar
     3    1   33 1
     4    2    3 ar
     5    2   34 1
     6    3    4 ar
     7    3   35 1
     8    4    5 ar
     9    4    7 1
    10    5    6 ar
    11    5   36 1
    12    6   37 1
    13    7    8 1
    14    7   38 1
    15    7   39 1
    16    8   17 1
    17    8    9 1
    18    8   66 1
    19    9   10 1
    20    9   40 1
    21    9   41 1
    22   10   11 1
    23   10   42 1
    24   10   43 1
    25   11   16 ar
    26   11   12 ar
    27   12   13 ar
    28   12   44 1
    29   13   14 ar
    30   13   32 1
    31   14   15 ar
    32   14   45 1
    33   15   16 ar
    34   15   46 1
    35   16   17 1
    36   17   18 1
    37   17   47 1
    38   18   23 ar
    39   18   19 ar
    40   19   20 ar
    41   19   48 1
    42   20   21 ar
    43   20   49 1
    44   21   22 ar
    45   21   24 1
    46   22   23 ar
    47   22   50 1
    48   23   51 1
    49   24   25 1
    50   25   26 1
    51   25   52 1
    52   25   53 1
    53   26   27 1
    54   26   54 1
    55   26   55 1
    56   27   31 1
    57   27   28 1
    58   27   65 1
    59   28   29 1
    60   28   56 1
    61   28   57 1
    62   29   30 1
    63   29   58 1
    64   29   59 1
    65   30   31 1
    66   30   60 1
    67   30   61 1
    68   31   62 1
    69   31   63 1
    70   32   64 1
@<TRIPOS>MOLECULE
CHEMBL94280__3
   65    69     0     0     0
SMALL
USER_CHARGES

@<TRIPOS>ATOM
      1 C1         -0.0167    1.3781    0.0096 C.ar      1 <0>        -0.1163
      2 C2          1.1709    2.0855    0.0021 C.ar      1 <0>        -0.1169
      3 C3          2.3773    1.4107   -0.0130 C.ar      1 <0>        -0.1151
      4 C4          2.3960    0.0285   -0.0201 C.ar      1 <0>        -0.0799
      5 C5          1.2084   -0.6789   -0.0117 C.ar      1 <0>        -0.0993
      6 C6          0.0021   -0.0041    0.0020 C.ar      1 <0>        -0.1204
      7 C7          3.7112   -0.7071   -0.0376 C.3       1 <0>         0.0931
      8 N1          4.1530   -0.9531    1.3416 N.3       1 <0>        -0.5189
      9 C8          4.4891    0.3085    2.0206 C.3       1 <0>         0.0458
     10 C9          4.5815    0.0413    3.5232 C.3       1 <0>        -0.0783
     11 C10         5.4764   -1.1438    3.7809 C.ar      1 <0>        -0.0435
     12 C11         5.9732   -1.3295    5.0614 C.ar      1 <0>        -0.1465
     13 C12         6.7962   -2.4078    5.3423 C.ar      1 <0>         0.1141
     14 C13         7.1221   -3.3049    4.3352 C.ar      1 <0>        -0.1491
     15 C14         6.6268   -3.1160    3.0620 C.ar      1 <0>        -0.0921
     16 C15         5.8047   -2.0340    2.7804 C.ar      1 <0>        -0.0863
     17 C16         5.2994   -1.8667    1.3711 C.3       1 <0>         0.1693
     18 C17         4.8795   -3.2093    0.8306 C.ar      1 <0>        -0.0932
     19 C18         3.6384   -3.7258    1.1539 C.ar      1 <0>        -0.0431
     20 C19         3.2512   -4.9566    0.6601 C.ar      1 <0>        -0.1437
     21 C20         4.1088   -5.6741   -0.1612 C.ar      1 <0>         0.1134
     22 C21         5.3534   -5.1534   -0.4844 C.ar      1 <0>        -0.2023
     23 C22         5.7337   -3.9199    0.0078 C.ar      1 <0>        -0.0762
     24 O1          3.7304   -6.8852   -0.6478 O.3       1 <0>        -0.3288
     25 C23         4.6642   -7.5677   -1.4871 C.3       1 <0>         0.0276
     26 C24         4.0664   -8.9030   -1.9347 C.3       1 <0>         0.0037
     27 N2          2.8921   -8.6545   -2.7816 N.4       1 <0>        -0.3956
     28 C25         3.3107   -8.0550   -4.0745 C.3       1 <0>        -0.0103
     29 C26         2.1231   -8.3776   -5.0159 C.3       1 <0>        -0.1447
     30 C27         1.6971   -9.7928   -4.5625 C.3       1 <0>        -0.1450
     31 C28         2.2313   -9.9324   -3.1249 C.3       1 <0>        -0.0087
     32 O2          7.2827   -2.5860    6.5987 O.3       1 <0>        -0.4984
     33 H1         -0.9591    1.9053    0.0259 H         1 <0>         0.1226
     34 H2          1.1563    3.1654    0.0076 H         1 <0>         0.1234
     35 H3          3.3051    1.9634   -0.0196 H         1 <0>         0.1195
     36 H4          1.2231   -1.7588   -0.0176 H         1 <0>         0.1178
     37 H5         -0.9258   -0.5567    0.0082 H         1 <0>         0.1212
     38 H6          3.5884   -1.6586   -0.5549 H         1 <0>         0.0840
     39 H7          4.4573   -0.1052   -0.5563 H         1 <0>         0.0458
     40 H8          5.4473    0.6774    1.6547 H         1 <0>         0.0432
     41 H9          3.7111    1.0470    1.8272 H         1 <0>         0.0930
     42 H10         4.9912    0.9194    4.0223 H         1 <0>         0.0835
     43 H11         3.5859   -0.1649    3.9160 H         1 <0>         0.0882
     44 H12         5.7178   -0.6301    5.8436 H         1 <0>         0.1308
     45 H13         7.7621   -4.1485    4.5476 H         1 <0>         0.1286
     46 H14         6.8807   -3.8148    2.2786 H         1 <0>         0.1227
     47 H15         6.0976   -1.4625    0.7485 H         1 <0>         0.0632
     48 H16         2.9712   -3.1669    1.7932 H         1 <0>         0.1440
     49 H17         2.2819   -5.3600    0.9134 H         1 <0>         0.1320
     50 H18         6.0227   -5.7101   -1.1235 H         1 <0>         0.1266
     51 H19         6.7007   -3.5121   -0.2471 H         1 <0>         0.1291
     52 H20         4.8812   -6.9552   -2.3622 H         1 <0>         0.0847
     53 H21         5.5852   -7.7493   -0.9333 H         1 <0>         0.1077
     54 H22         4.8109   -9.4627   -2.5010 H         1 <0>         0.1482
     55 H23         3.7675   -9.4790   -1.0590 H         1 <0>         0.1411
     56 H24         3.4408   -6.9774   -3.9747 H         1 <0>         0.1332
     57 H25         4.2265   -8.5222   -4.4366 H         1 <0>         0.1347
     58 H26         1.3111   -7.6651   -4.8704 H         1 <0>         0.0984
     59 H27         2.4474   -8.3872   -6.0565 H         1 <0>         0.1173
     60 H28         0.6108   -9.8823   -4.5727 H         1 <0>         0.1057
     61 H29         2.1458  -10.5479   -5.2078 H         1 <0>         0.1044
     62 H30         2.9521  -10.7485   -3.0742 H         1 <0>         0.1313
     63 H31         1.4056  -10.1195   -2.4385 H         1 <0>         0.1330
     64 H32         6.7155   -3.1245    7.1674 H         1 <0>         0.3932
     65 H33         2.2437   -8.0439   -2.3076 H         1 <0>         0.4336
@<TRIPOS>BOND
     1    1    6 ar
     2    1    2 ar
     3    1   33 1
     4    2    3 ar
     5    2   34 1
     6    3    4 ar
     7    3   35 1
     8    4    5 ar
     9    4    7 1
    10    5    6 ar
    11    5   36 1
    12    6   37 1
    13    7    8 1
    14    7   38 1
    15    7   39 1
    16    8   17 1
    17    8    9 1
    18    9   10 1
    19    9   40 1
    20    9   41 1
    21   10   11 1
    22   10   42 1
    23   10   43 1
    24   11   16 ar
    25   11   12 ar
    26   12   13 ar
    27   12   44 1
    28   13   14 ar
    29   13   32 1
    30   14   15 ar
    31   14   45 1
    32   15   16 ar
    33   15   46 1
    34   16   17 1
    35   17   18 1
    36   17   47 1
    37   18   23 ar
    38   18   19 ar
    39   19   20 ar
    40   19   48 1
    41   20   21 ar
    42   20   49 1
    43   21   22 ar
    44   21   24 1
    45   22   23 ar
    46   22   50 1
    47   23   51 1
    48   24   25 1
    49   25   26 1
    50   25   52 1
    51   25   53 1
    52   26   27 1
    53   26   54 1
    54   26   55 1
    55   27   31 1
    56   27   28 1
    57   27   65 1
    58   28   29 1
    59   28   56 1
    60   28   57 1
    61   29   30 1
    62   29   58 1
    63   29   59 1
    64   30   31 1
    65   30   60 1
    66   30   61 1
    67   31   62 1
    68   31   63 1
    69   32   64 1
@<TRIPOS>MOLECULE
CHEMBL278315
   79    80     0     0     0
SMALL
USER_CHARGES

@<TRIPOS>ATOM
      1 C1         -0.2239    0.7132    1.7044 C.3       1 <0>        -0.1402
      2 C2         -0.3398   -0.7147    1.1649 C.3       1 <0>        -0.0739
      3 H1         -1.3438   -0.8719    0.7782 H         1 <0>         0.0859
      4 C3          0.6899   -0.9346    0.0563 C.3       1 <0>        -0.1308
      5 C4          0.1076   -0.6374   -1.3236 C.3       1 <0>         0.1076
      6 H2          0.9219   -0.6819   -2.0549 H         1 <0>         0.0568
      7 C5         -0.9532   -1.6700   -1.6939 C.3       1 <0>         0.1155
      8 H3         -1.7173   -1.7118   -0.9176 H         1 <0>         0.0818
      9 C6         -1.6179   -1.3140   -3.0281 C.3       1 <0>        -0.0868
     10 H4         -1.4228   -0.2770   -3.2701 H         1 <0>         0.0910
     11 C7         -3.0912   -1.6024   -2.9366 C.2       1 <0>        -0.1195
     12 C8         -4.0302   -0.7074   -3.0596 C.2       1 <0>        -0.1287
     13 C9         -5.4789   -1.1327   -2.9283 C.3       1 <0>         0.1222
     14 H5         -5.6526   -1.9792   -3.5893 H         1 <0>         0.0958
     15 C10        -5.7498   -1.5520   -1.4848 C.3       1 <0>         0.1229
     16 H6         -5.8198   -2.6377   -1.4378 H         1 <0>         0.1201
     17 C11        -7.0330   -0.9452   -0.9747 C.2       1 <0>        -0.1720
     18 C12        -7.2785   -0.9105    0.3436 C.2       1 <0>        -0.0997
     19 C13        -6.3624   -1.4825    1.2460 C.2       1 <0>        -0.0683
     20 C14        -6.1110   -1.0200    2.4930 C.2       1 <0>        -0.1355
     21 C15        -5.1050   -1.7106    3.2727 C.2       1 <0>         0.5213
     22 O1         -4.7790   -2.8209    2.8577 O.2       1 <0>        -0.5299
     23 N1         -4.5309   -1.2822    4.3865 N.2       1 <0>        -0.6046
     24 C16        -3.2260   -1.1751    4.5052 C.2       1 <0>         0.2799
     25 C17        -2.6262   -0.7586    5.7202 C.2       1 <0>        -0.3844
     26 C18        -1.2765   -0.6372    5.8113 C.2       1 <0>         0.2957
     27 O2         -0.7213   -0.2142    6.9727 O.3       1 <0>        -0.6471
     28 C19        -0.4037   -0.9541    4.6685 C.2       1 <0>         0.1511
     29 C20        -0.9341   -1.3654    3.4941 C.2       1 <0>        -0.2139
     30 C21        -0.0743   -1.7046    2.3018 C.3       1 <0>        -0.0540
     31 C22        -2.3402   -1.4984    3.3488 C.2       1 <0>         0.3752
     32 O3         -2.7948   -1.8611    2.2836 O.2       1 <0>        -0.3990
     33 O4          0.9374   -0.8415    4.8117 O.3       1 <0>        -0.3264
     34 C23         1.5688   -1.7334    5.7325 C.3       1 <0>         0.0384
     35 C24        -6.8436    0.1698    3.0458 C.3       1 <0>        -0.1095
     36 O5         -4.6540   -1.1198   -0.6701 O.3       1 <0>        -0.3393
     37 C25        -4.6649    0.2785   -0.3754 C.3       1 <0>         0.0250
     38 O6         -6.3204   -0.0442   -3.2972 O.3       1 <0>        -0.3455
     39 C26        -6.6733    0.0436   -4.5935 C.2       1 <0>         0.6470
     40 O7         -6.2753   -0.7842   -5.3889 O.2       1 <0>        -0.5704
     41 N2         -7.4679    1.0498   -5.0089 N.am      1 <0>        -0.8288
     42 C27        -3.7237    0.7447   -3.3208 C.3       1 <0>        -0.1129
     43 C28        -1.0115   -2.1977   -4.1280 C.3       1 <0>        -0.1357
     44 O8         -0.3361   -2.9574   -1.8156 O.3       1 <0>        -0.5622
     45 O9         -0.4562    0.6735   -1.3447 O.3       1 <0>        -0.3682
     46 C29         0.4637    1.6956   -1.7332 C.3       1 <0>         0.0322
     47 H7          0.7817    0.8743    2.0930 H         1 <0>         0.0474
     48 H8         -0.4207    1.4225    0.9005 H         1 <0>         0.0561
     49 H9         -0.9501    0.8596    2.5040 H         1 <0>         0.0478
     50 H10         1.5531   -0.2956    0.2388 H         1 <0>         0.0596
     51 H11         1.0171   -1.9770    0.0895 H         1 <0>         0.0768
     52 H12        -3.3975   -2.6351   -2.7561 H         1 <0>         0.0997
     53 H13        -7.7627   -0.5541   -1.6568 H         1 <0>         0.1240
     54 H14        -8.1894   -0.4440    0.6965 H         1 <0>         0.1186
     55 H15        -5.8292   -2.3851    0.9268 H         1 <0>         0.1339
     56 H16        -3.2453   -0.5464    6.5756 H         1 <0>         0.1237
     57 H17        -0.3204   -2.7143    1.9639 H         1 <0>         0.0672
     58 H18         0.9759   -1.6671    2.5825 H         1 <0>         0.0705
     59 H19         1.4171   -2.7617    5.4044 H         1 <0>         0.0402
     60 H20         2.6366   -1.5185    5.7724 H         1 <0>         0.0878
     61 H21         1.1341   -1.6003    6.7232 H         1 <0>         0.0700
     62 H22        -7.7466   -0.1646    3.5565 H         1 <0>         0.0670
     63 H23        -6.2010    0.6965    3.7514 H         1 <0>         0.0730
     64 H24        -7.1145    0.8407    2.2305 H         1 <0>         0.0572
     65 H25        -3.6710    0.5899   -0.0543 H         1 <0>         0.0781
     66 H26        -4.9496    0.8357   -1.2680 H         1 <0>         0.0517
     67 H27        -5.3826    0.4764    0.4207 H         1 <0>         0.0431
     68 H28        -7.7856    1.7107   -4.3739 H         1 <0>         0.4079
     69 H29        -7.7222    1.1131   -5.9429 H         1 <0>         0.4241
     70 H30        -2.6442    0.8830   -3.3810 H         1 <0>         0.0693
     71 H31        -4.1821    1.0493   -4.2616 H         1 <0>         0.0496
     72 H32        -4.1230    1.3522   -2.5086 H         1 <0>         0.0723
     73 H33        -1.1912   -3.2465   -3.8918 H         1 <0>         0.0560
     74 H34        -1.4747   -1.9562   -5.0847 H         1 <0>         0.0495
     75 H35         0.0618   -2.0176   -4.1882 H         1 <0>         0.0567
     76 H36        -0.9497   -3.6672   -2.0499 H         1 <0>         0.3800
     77 H37        -0.0413    2.6615   -1.7242 H         1 <0>         0.0840
     78 H38         1.3001    1.7164   -1.0345 H         1 <0>         0.0422
     79 H39         0.8340    1.4886   -2.7372 H         1 <0>         0.0366
@<TRIPOS>BOND
     1    1    2 1
     2    1   47 1
     3    1   48 1
     4    1   49 1
     5    2    3 1
     6    2   30 1
     7    2    4 1
     8    4    5 1
     9    4   50 1
    10    4   51 1
    11    5    6 1
    12    5    7 1
    13    5   45 1
    14    7    8 1
    15    7    9 1
    16    7   44 1
    17    9   10 1
    18    9   11 1
    19    9   43 1
    20   11   12 2
    21   11   52 1
    22   12   13 1
    23   12   42 1
    24   13   14 1
    25   13   15 1
    26   13   38 1
    27   15   16 1
    28   15   17 1
    29   15   36 1
    30   17   18 2
    31   17   53 1
    32   18   19 1
    33   18   54 1
    34   19   20 2
    35   19   55 1
    36   20   21 1
    37   20   35 1
    38   21   22 2
    39   21   23 1
    40   23   24 2
    41   24   31 1
    42   24   25 1
    43   25   26 2
    44   25   56 1
    45   26   27 1
    46   26   28 1
    47   28   29 2
    48   28   33 1
    49   29   30 1
    50   29   31 1
    51   30   57 1
    52   30   58 1
    53   31   32 2
    54   33   34 1
    55   34   59 1
    56   34   60 1
    57   34   61 1
    58   35   62 1
    59   35   63 1
    60   35   64 1
    61   36   37 1
    62   37   65 1
    63   37   66 1
    64   37   67 1
    65   38   39 1
    66   39   40 2
    67   39   41 am
    68   41   68 1
    69   41   69 1
    70   42   70 1
    71   42   71 1
    72   42   72 1
    73   43   73 1
    74   43   74 1
    75   43   75 1
    76   44   76 1
    77   45   46 1
    78   46   77 1
    79   46   78 1
    80   46   79 1
@<TRIPOS>MOLECULE
CHEMBL85881
   71    75     0     0     0
SMALL
USER_CHARGES

@<TRIPOS>ATOM
      1 C1         -0.0078    1.6611   -0.7611 C.ar      1 <0>        -0.0591
      2 C2          1.3190    2.0048   -0.9341 C.ar      1 <0>        -0.1393
      3 C3          2.2898    1.0150   -0.9851 C.ar      1 <0>         0.1227
      4 C4          1.9252   -0.3179   -0.8620 C.ar      1 <0>        -0.2037
      5 C5          0.5971   -0.6564   -0.6891 C.ar      1 <0>        -0.0465
      6 C6         -0.3685    0.3319   -0.6387 C.ar      1 <0>        -0.1007
      7 C7         -1.8166   -0.0401   -0.4495 C.3       1 <0>         0.1435
      8 H1         -2.3704    0.8247   -0.0841 H         1 <0>         0.0918
      9 C8         -2.4089   -0.5005   -1.7919 C.3       1 <0>        -0.1056
     10 H2         -2.2504    0.2658   -2.5507 H         1 <0>         0.1336
     11 S1         -4.1922   -0.7534   -1.5275 S.3       1 <0>        -0.0917
     12 C9         -4.2361   -1.5941    0.0256 C.ar      1 <0>        -0.1397
     13 C10        -5.4162   -2.2051    0.4286 C.ar      1 <0>        -0.0910
     14 C11        -5.4785   -2.8636    1.6459 C.ar      1 <0>         0.0979
     15 C12        -4.3567   -2.9065    2.4607 C.ar      1 <0>        -0.1102
     16 C13        -3.1833   -2.3017    2.0598 C.ar      1 <0>        -0.1142
     17 C14        -3.1065   -1.6431    0.8348 C.ar      1 <0>         0.1191
     18 O1         -1.9157   -1.0990    0.4905 O.3       1 <0>        -0.3108
     19 O2         -6.6332   -3.4640    2.0400 O.3       1 <0>        -0.4926
     20 C15        -1.7531   -1.8117   -2.2297 C.3       1 <0>        -0.1046
     21 C16        -2.2709   -2.2032   -3.6151 C.3       1 <0>        -0.0904
     22 C17        -1.7197   -3.5789   -3.9955 C.3       1 <0>        -0.1097
     23 C18        -2.2376   -3.9705   -5.3810 C.3       1 <0>        -0.1211
     24 C19        -1.7777   -2.9347   -6.4089 C.3       1 <0>        -0.1194
     25 C20        -2.3289   -1.5591   -6.0284 C.3       1 <0>        -0.1209
     26 C21        -1.8110   -1.1675   -4.6430 C.3       1 <0>        -0.1118
     27 O3          3.5956    1.3505   -1.1558 O.3       1 <0>        -0.3273
     28 C22         4.5404    0.2793   -1.1987 C.3       1 <0>         0.0251
     29 C23         5.9473    0.8477   -1.3953 C.3       1 <0>        -0.0008
     30 N1          6.3052    1.6797   -0.2387 N.4       1 <0>        -0.3841
     31 C24         7.5869    2.3472   -0.4960 C.3       1 <0>        -0.0071
     32 C25         7.9250    3.2777    0.6707 C.3       1 <0>        -0.1467
     33 C26         8.0251    2.4562    1.9593 C.3       1 <0>        -0.1391
     34 C27         6.7082    1.7057    2.1782 C.3       1 <0>        -0.1454
     35 C28         6.4153    0.8334    0.9556 C.3       1 <0>        -0.0132
     36 H3         -0.7633    2.4315   -0.7168 H         1 <0>         0.1396
     37 H4          1.6002    3.0431   -1.0301 H         1 <0>         0.1377
     38 H5          2.6791   -1.0903   -0.9017 H         1 <0>         0.1301
     39 H6          0.3128   -1.6939   -0.5932 H         1 <0>         0.1375
     40 H7         -6.2873   -2.1672   -0.2087 H         1 <0>         0.1390
     41 H8         -4.4020   -3.4150    3.4125 H         1 <0>         0.1409
     42 H9         -2.3157   -2.3396    2.7018 H         1 <0>         0.1382
     43 H10        -6.7114   -4.3868    1.7619 H         1 <0>         0.3941
     44 H11        -0.6716   -1.6814   -2.2695 H         1 <0>         0.0780
     45 H12        -1.9984   -2.5970   -1.5148 H         1 <0>         0.0709
     46 H13        -3.3602   -2.2401   -3.5988 H         1 <0>         0.0853
     47 H14        -0.6305   -3.5420   -4.0119 H         1 <0>         0.0579
     48 H15        -2.0474   -4.3168   -3.2632 H         1 <0>         0.0609
     49 H16        -1.8449   -4.9505   -5.6520 H         1 <0>         0.0622
     50 H17        -3.3269   -4.0073   -5.3646 H         1 <0>         0.0638
     51 H18        -0.6885   -2.8979   -6.4252 H         1 <0>         0.0586
     52 H19        -2.1467   -3.2137   -7.3958 H         1 <0>         0.0624
     53 H20        -2.0013   -0.8212   -6.7607 H         1 <0>         0.0610
     54 H21        -3.4182   -1.5959   -6.0121 H         1 <0>         0.0639
     55 H22        -2.2037   -0.1875   -4.3720 H         1 <0>         0.0576
     56 H23        -0.7218   -1.1306   -4.6593 H         1 <0>         0.0582
     57 H24         4.5010   -0.2777   -0.2626 H         1 <0>         0.0872
     58 H25         4.2982   -0.3858   -2.0276 H         1 <0>         0.1099
     59 H26         6.6603    0.0285   -1.4882 H         1 <0>         0.1493
     60 H27         5.9708    1.4544   -2.3005 H         1 <0>         0.1427
     61 H28         8.3715    1.5979   -0.6017 H         1 <0>         0.1292
     62 H29         7.5151    2.9288   -1.4150 H         1 <0>         0.1311
     63 H30         8.8778    3.7710    0.4786 H         1 <0>         0.1132
     64 H31         7.1411    4.0276    0.7772 H         1 <0>         0.0880
     65 H32         8.8425    1.7403    1.8726 H         1 <0>         0.0821
     66 H33         8.2098    3.1218    2.8025 H         1 <0>         0.0949
     67 H34         6.7913    1.0754    3.0635 H         1 <0>         0.1124
     68 H35         5.8991    2.4230    2.3159 H         1 <0>         0.0879
     69 H36         5.4784    0.2976    1.1082 H         1 <0>         0.1272
     70 H37         7.2248    0.1165    0.8190 H         1 <0>         0.1303
     71 H38         5.5895    2.3755   -0.0918 H         1 <0>         0.4294
@<TRIPOS>BOND
     1    1    6 ar
     2    1    2 ar
     3    1   36 1
     4    2    3 ar
     5    2   37 1
     6    3    4 ar
     7    3   27 1
     8    4    5 ar
     9    4   38 1
    10    5    6 ar
    11    5   39 1
    12    6    7 1
    13    7    8 1
    14    7   18 1
    15    7    9 1
    16    9   10 1
    17    9   11 1
    18    9   20 1
    19   11   12 1
    20   12   17 ar
    21   12   13 ar
    22   13   14 ar
    23   13   40 1
    24   14   15 ar
    25   14   19 1
    26   15   16 ar
    27   15   41 1
    28   16   17 ar
    29   16   42 1
    30   17   18 1
    31   19   43 1
    32   20   21 1
    33   20   44 1
    34   20   45 1
    35   21   26 1
    36   21   22 1
    37   21   46 1
    38   22   23 1
    39   22   47 1
    40   22   48 1
    41   23   24 1
    42   23   49 1
    43   23   50 1
    44   24   25 1
    45   24   51 1
    46   24   52 1
    47   25   26 1
    48   25   53 1
    49   25   54 1
    50   26   55 1
    51   26   56 1
    52   27   28 1
    53   28   29 1
    54   28   57 1
    55   28   58 1
    56   29   30 1
    57   29   59 1
    58   29   60 1
    59   30   35 1
    60   30   31 1
    61   30   71 1
    62   31   32 1
    63   31   61 1
    64   31   62 1
    65   32   33 1
    66   32   63 1
    67   32   64 1
    68   33   34 1
    69   33   65 1
    70   33   66 1
    71   34   35 1
    72   34   67 1
    73   34   68 1
    74   35   69 1
    75   35   70 1
@<TRIPOS>MOLECULE
CHEMBL380469
   49    52     0     0     0
SMALL
USER_CHARGES

@<TRIPOS>ATOM
      1 C1         -0.0187    1.5258    0.0104 C.3       1 <0>        -0.1539
      2 C2          0.0021   -0.0041    0.0020 C.3       1 <0>        -0.1258
      3 C3          0.7182   -0.4975   -1.2568 C.3       1 <0>        -0.1215
      4 C4          0.7390   -2.0273   -1.2652 C.3       1 <0>        -0.1004
      5 C5          1.4551   -2.5207   -2.5240 C.3       1 <0>        -0.0384
      6 C6          0.7503   -2.0389   -3.7941 C.3       1 <0>        -0.1066
      7 C7         -0.6515   -2.6556   -3.8368 C.3       1 <0>        -0.1668
      8 C8         -0.5727   -4.1572   -3.7846 C.2       1 <0>         0.3943
      9 O1         -1.4551   -4.8201   -4.2904 O.2       1 <0>        -0.4542
     10 C9          0.5195   -4.8113   -3.1524 C.2       1 <0>        -0.1599
     11 C10         1.5039   -4.0429   -2.5822 C.2       1 <0>         0.0350
     12 C11         2.7630   -4.4364   -1.9794 C.ar      1 <0>        -0.1030
     13 C12         3.1520   -5.6748   -1.4379 C.ar      1 <0>        -0.0466
     14 C13         4.4353   -5.7754   -0.9639 C.ar      1 <0>        -0.1579
     15 C14         5.3215   -4.7084   -1.0116 C.ar      1 <0>         0.1319
     16 C15         4.9487   -3.4655   -1.5305 C.ar      1 <0>        -0.1381
     17 C16         3.6579   -3.3419   -1.9969 C.ar      1 <0>        -0.0507
     18 C17         2.9447   -2.1257   -2.5190 C.3       1 <0>        -0.0801
     19 O2          6.5834   -4.8764   -0.5416 O.3       1 <0>        -0.4996
     20 C18         0.5935   -6.2908   -3.1090 C.ar      1 <0>        -0.0307
     21 C19         1.6195   -6.9602   -3.7750 C.ar      1 <0>        -0.1035
     22 C20         1.6831   -8.3379   -3.7310 C.ar      1 <0>        -0.1208
     23 C21         0.7316   -9.0549   -3.0279 C.ar      1 <0>        -0.1173
     24 C22        -0.2889   -8.3964   -2.3655 C.ar      1 <0>        -0.1186
     25 C23        -0.3594   -7.0187   -2.3971 C.ar      1 <0>        -0.0950
     26 H1          1.0039    1.9031    0.0027 H         1 <0>         0.0538
     27 H2         -0.5459    1.8868   -0.8726 H         1 <0>         0.0542
     28 H3         -0.5289    1.8773    0.9072 H         1 <0>         0.0541
     29 H4          0.5293   -0.3651    0.8851 H         1 <0>         0.0614
     30 H5         -1.0205   -0.3814    0.0098 H         1 <0>         0.0616
     31 H6          0.1910   -0.1364   -2.1398 H         1 <0>         0.0687
     32 H7          1.7408   -0.1202   -1.2645 H         1 <0>         0.0669
     33 H8          1.2661   -2.3884   -0.3821 H         1 <0>         0.0709
     34 H9         -0.2836   -2.4046   -1.2575 H         1 <0>         0.0708
     35 H10         0.6717   -0.9518   -3.7792 H         1 <0>         0.0877
     36 H11         1.3166   -2.3559   -4.6698 H         1 <0>         0.0750
     37 H12        -1.2281   -2.2964   -2.9843 H         1 <0>         0.1040
     38 H13        -1.1488   -2.3539   -4.7586 H         1 <0>         0.0984
     39 H14         2.4693   -6.5106   -1.3967 H         1 <0>         0.1380
     40 H15         4.7657   -6.7125   -0.5408 H         1 <0>         0.1307
     41 H16         5.6419   -2.6380   -1.5643 H         1 <0>         0.1407
     42 H17         3.2797   -1.8934   -3.5299 H         1 <0>         0.0936
     43 H18         3.1102   -1.2751   -1.8579 H         1 <0>         0.0949
     44 H19         7.2141   -5.1811   -1.2082 H         1 <0>         0.3951
     45 H20         2.3627   -6.4015   -4.3246 H         1 <0>         0.1187
     46 H21         2.4771   -8.8575   -4.2468 H         1 <0>         0.1231
     47 H22         0.7855  -10.1331   -2.9962 H         1 <0>         0.1225
     48 H23        -1.0293   -8.9615   -1.8188 H         1 <0>         0.1240
     49 H24        -1.1536   -6.5054   -1.8754 H         1 <0>         0.1195
@<TRIPOS>BOND
     1    1    2 1
     2    1   26 1
     3    1   27 1
     4    1   28 1
     5    2    3 1
     6    2   29 1
     7    2   30 1
     8    3    4 1
     9    3   31 1
    10    3   32 1
    11    4    5 1
    12    4   33 1
    13    4   34 1
    14    5   11 1
    15    5   18 1
    16    5    6 1
    17    6    7 1
    18    6   35 1
    19    6   36 1
    20    7    8 1
    21    7   37 1
    22    7   38 1
    23    8    9 2
    24    8   10 1
    25   10   11 2
    26   10   20 1
    27   11   12 1
    28   12   17 ar
    29   12   13 ar
    30   13   14 ar
    31   13   39 1
    32   14   15 ar
    33   14   40 1
    34   15   16 ar
    35   15   19 1
    36   16   17 ar
    37   16   41 1
    38   17   18 1
    39   18   42 1
    40   18   43 1
    41   19   44 1
    42   20   25 ar
    43   20   21 ar
    44   21   22 ar
    45   21   45 1
    46   22   23 ar
    47   22   46 1
    48   23   24 ar
    49   23   47 1
    50   24   25 ar
    51   24   48 1
    52   25   49 1
@<TRIPOS>MOLECULE
CHEMBL380469__1
   49    52     0     0     0
SMALL
USER_CHARGES

@<TRIPOS>ATOM
      1 C1         -0.0187    1.5258    0.0104 C.3       1 <0>        -0.1540
      2 C2          0.0021   -0.0041    0.0020 C.3       1 <0>        -0.1256
      3 C3          0.7182   -0.4975   -1.2568 C.3       1 <0>        -0.1217
      4 C4          0.7390   -2.0273   -1.2652 C.3       1 <0>        -0.1000
      5 C5          1.4551   -2.5207   -2.5240 C.3       1 <0>        -0.0385
      6 C6          2.8989   -2.0164   -2.5805 C.3       1 <0>        -0.1068
      7 C7          3.6688   -2.6104   -1.3966 C.3       1 <0>        -0.1666
      8 C8          3.6072   -4.1135   -1.4237 C.2       1 <0>         0.3945
      9 O1          4.5064   -4.7578   -0.9234 O.2       1 <0>        -0.4542
     10 C9          2.5125   -4.7905   -2.0268 C.2       1 <0>        -0.1607
     11 C10         1.5039   -4.0429   -2.5822 C.2       1 <0>         0.0346
     12 C11         0.3440   -4.4616   -3.3457 C.ar      1 <0>        -0.1032
     13 C12        -0.3008   -5.7109   -3.3881 C.ar      1 <0>        -0.0592
     14 C13        -1.3676   -5.8361   -4.2414 C.ar      1 <0>        -0.1582
     15 C14        -1.8005   -4.7832   -5.0351 C.ar      1 <0>         0.1310
     16 C15        -1.1832   -3.5300   -4.9953 C.ar      1 <0>        -0.1377
     17 C16        -0.1202   -3.3814   -4.1308 C.ar      1 <0>        -0.0505
     18 C17         0.6757   -2.1495   -3.8006 C.3       1 <0>        -0.0801
     19 O2         -2.8509   -4.9757   -5.8724 O.3       1 <0>        -0.4990
     20 C18         2.4610   -6.2713   -2.0553 C.ar      1 <0>        -0.0283
     21 C19         1.4599   -6.9503   -1.3617 C.ar      1 <0>        -0.1115
     22 C20         1.4171   -8.3292   -1.3919 C.ar      1 <0>        -0.1222
     23 C21         2.3649   -9.0379   -2.1085 C.ar      1 <0>        -0.1160
     24 C22         3.3608   -8.3697   -2.7982 C.ar      1 <0>        -0.1169
     25 C23         3.4102   -6.9908   -2.7805 C.ar      1 <0>        -0.0926
     26 H1          1.0039    1.9031    0.0027 H         1 <0>         0.0543
     27 H2         -0.5459    1.8868   -0.8726 H         1 <0>         0.0537
     28 H3         -0.5289    1.8773    0.9072 H         1 <0>         0.0540
     29 H4          0.5293   -0.3651    0.8851 H         1 <0>         0.0616
     30 H5         -1.0205   -0.3814    0.0098 H         1 <0>         0.0611
     31 H6          0.1910   -0.1364   -2.1398 H         1 <0>         0.0669
     32 H7          1.7408   -0.1202   -1.2645 H         1 <0>         0.0689
     33 H8          1.2661   -2.3884   -0.3821 H         1 <0>         0.0709
     34 H9         -0.2836   -2.4046   -1.2575 H         1 <0>         0.0706
     35 H10         3.3615   -2.3345   -3.5148 H         1 <0>         0.0752
     36 H11         2.9095   -0.9284   -2.5153 H         1 <0>         0.0877
     37 H12         4.7101   -2.2926   -1.4495 H         1 <0>         0.0987
     38 H13         3.2307   -2.2498   -0.4660 H         1 <0>         0.1038
     39 H14         0.0299   -6.5363   -2.7753 H         1 <0>         0.1471
     40 H15        -1.8856   -6.7821   -4.2974 H         1 <0>         0.1306
     41 H16        -1.5240   -2.7139   -5.6151 H         1 <0>         0.1408
     42 H17         0.0107   -1.3075   -3.6085 H         1 <0>         0.0948
     43 H18         1.3647   -1.9134   -4.6115 H         1 <0>         0.0937
     44 H19        -3.7108   -4.7785   -5.4765 H         1 <0>         0.3946
     45 H20         0.7197   -6.3982   -0.8016 H         1 <0>         0.1223
     46 H21         0.6425   -8.8563   -0.8548 H         1 <0>         0.1251
     47 H22         2.3274  -10.1170   -2.1292 H         1 <0>         0.1234
     48 H23         4.0984   -8.9283   -3.3553 H         1 <0>         0.1243
     49 H24         4.1850   -6.4701   -3.3235 H         1 <0>         0.1195
@<TRIPOS>BOND
     1    1    2 1
     2    1   26 1
     3    1   27 1
     4    1   28 1
     5    2    3 1
     6    2   29 1
     7    2   30 1
     8    3    4 1
     9    3   31 1
    10    3   32 1
    11    4    5 1
    12    4   33 1
    13    4   34 1
    14    5   11 1
    15    5   18 1
    16    5    6 1
    17    6    7 1
    18    6   35 1
    19    6   36 1
    20    7    8 1
    21    7   37 1
    22    7   38 1
    23    8    9 2
    24    8   10 1
    25   10   11 2
    26   10   20 1
    27   11   12 1
    28   12   17 ar
    29   12   13 ar
    30   13   14 ar
    31   13   39 1
    32   14   15 ar
    33   14   40 1
    34   15   16 ar
    35   15   19 1
    36   16   17 ar
    37   16   41 1
    38   17   18 1
    39   18   42 1
    40   18   43 1
    41   19   44 1
    42   20   25 ar
    43   20   21 ar
    44   21   22 ar
    45   21   45 1
    46   22   23 ar
    47   22   46 1
    48   23   24 ar
    49   23   47 1
    50   24   25 ar
    51   24   48 1
    52   25   49 1
@<TRIPOS>MOLECULE
CHEMBL442249
   82    86     0     0     0
SMALL
USER_CHARGES

@<TRIPOS>ATOM
      1 C1         -0.0187    1.5258    0.0104 C.3       1 <0>        -0.1657
      2 C2          0.0021   -0.0041    0.0020 C.3       1 <0>         0.1425
      3 H1          0.5123   -0.3556   -0.8948 H         1 <0>         0.0889
      4 C3         -1.4333   -0.5336    0.0129 C.3       1 <0>        -0.1225
      5 C4         -1.4157   -2.0577   -0.1212 C.3       1 <0>        -0.0776
      6 C5         -2.8295   -2.5793   -0.1105 C.ar      1 <0>        -0.0931
      7 C6         -3.4314   -2.9172    1.0875 C.ar      1 <0>        -0.1009
      8 C7         -4.7271   -3.3960    1.1000 C.ar      1 <0>        -0.1427
      9 C8         -5.4247   -3.5373   -0.0909 C.ar      1 <0>         0.1017
     10 C9         -4.8186   -3.1971   -1.2916 C.ar      1 <0>        -0.1424
     11 C10        -3.5245   -2.7138   -1.2982 C.ar      1 <0>        -0.1007
     12 O1         -6.6993   -4.0085   -0.0813 O.3       1 <0>        -0.5007
     13 N1          0.7106   -0.4894    1.1889 N.am      1 <0>        -0.7288
     14 C11         2.0538   -0.5998    1.1737 C.2       1 <0>         0.5129
     15 O2          2.6758   -0.2974    0.1774 O.2       1 <0>        -0.5246
     16 C12         2.7826   -1.0990    2.3946 C.3       1 <0>        -0.0696
     17 C13         4.2638   -1.1281    2.1185 C.2       1 <0>        -0.1412
     18 C14         5.0227   -2.2455    1.5590 C.ar      1 <0>        -0.0479
     19 C15         4.6771   -3.5319    1.1332 C.ar      1 <0>        -0.0999
     20 C16         5.6542   -4.3722    0.6397 C.ar      1 <0>         0.0930
     21 C17         6.9773   -3.9434    0.5656 C.ar      1 <0>        -0.1802
     22 C18         7.3297   -2.6790    0.9823 C.ar      1 <0>        -0.0855
     23 C19         6.3607   -1.8157    1.4825 C.ar      1 <0>         0.0804
     24 N2          6.4067   -0.5238    1.9641 N.pl3     1 <0>        -0.5852
     25 H2          7.2073    0.0202    2.0265 H         1 <0>         0.4185
     26 C20         5.1452   -0.1207    2.3362 C.2       1 <0>         0.1564
     27 C21         4.8033    1.2064    2.8922 C.ar      1 <0>        -0.0470
     28 C22         3.6787    1.8911    2.4299 C.ar      1 <0>        -0.0923
     29 C23         3.3649    3.1286    2.9530 C.ar      1 <0>        -0.1169
     30 C24         4.1625    3.6907    3.9339 C.ar      1 <0>        -0.1051
     31 C25         5.2791    3.0172    4.3962 C.ar      1 <0>        -0.1172
     32 C26         5.6006    1.7766    3.8855 C.ar      1 <0>        -0.1038
     33 O3          5.3240   -5.6244    0.2246 O.3       1 <0>        -0.3147
     34 C27         6.3836   -6.4427   -0.2752 C.3       1 <0>         0.0649
     35 C28         5.8236   -7.8046   -0.6907 C.3       1 <0>        -0.1507
     36 C29         6.9580   -8.6807   -1.2259 C.3       1 <0>        -0.0061
     37 N3          6.4204   -9.9883   -1.6248 N.4       1 <0>        -0.3815
     38 C30         5.9054  -10.6858   -0.4405 C.3       1 <0>        -0.0137
     39 C31         5.2711  -12.0133   -0.8614 C.3       1 <0>        -0.1460
     40 C32         6.3282  -12.8827   -1.5484 C.3       1 <0>        -0.1397
     41 C33         6.9115  -12.1151   -2.7383 C.3       1 <0>        -0.1465
     42 C34         7.4850  -10.7839   -2.2478 C.3       1 <0>        -0.0065
     43 H3          1.0039    1.9031    0.0027 H         1 <0>         0.0608
     44 H4         -0.5459    1.8868   -0.8726 H         1 <0>         0.0667
     45 H5         -0.5289    1.8773    0.9072 H         1 <0>         0.0584
     46 H6         -1.9156   -0.2570    0.9504 H         1 <0>         0.0721
     47 H7         -1.9862   -0.1019   -0.8214 H         1 <0>         0.0818
     48 H8         -0.9334   -2.3344   -1.0587 H         1 <0>         0.0730
     49 H9         -0.8628   -2.4894    0.7131 H         1 <0>         0.0730
     50 H10        -2.8879   -2.8071    2.0143 H         1 <0>         0.1254
     51 H11        -5.1966   -3.6605    2.0359 H         1 <0>         0.1287
     52 H12        -5.3596   -3.3061   -2.2200 H         1 <0>         0.1288
     53 H13        -3.0538   -2.4447   -2.2322 H         1 <0>         0.1259
     54 H14        -7.3727   -3.3195    0.0019 H         1 <0>         0.3928
     55 H15         0.2131   -0.7312    1.9857 H         1 <0>         0.3996
     56 H16         2.5826   -0.4337    3.2345 H         1 <0>         0.1023
     57 H17         2.4385   -2.1044    2.6374 H         1 <0>         0.1016
     58 H18         3.6516   -3.8658    1.1905 H         1 <0>         0.1286
     59 H19         7.7343   -4.6090    0.1778 H         1 <0>         0.1276
     60 H20         8.3590   -2.3577    0.9207 H         1 <0>         0.1268
     61 H21         3.0555    1.4535    1.6640 H         1 <0>         0.1311
     62 H22         2.4950    3.6598    2.5959 H         1 <0>         0.1279
     63 H23         3.9125    4.6597    4.3402 H         1 <0>         0.1277
     64 H24         5.8978    3.4616    5.1618 H         1 <0>         0.1285
     65 H25         6.4700    1.2498    4.2503 H         1 <0>         0.1223
     66 H26         6.8400   -5.9587   -1.1387 H         1 <0>         0.0703
     67 H27         7.1342   -6.5806    0.5030 H         1 <0>         0.0701
     68 H28         5.3672   -8.2885    0.1727 H         1 <0>         0.0984
     69 H29         5.0730   -7.6667   -1.4689 H         1 <0>         0.0986
     70 H30         7.4145   -8.1967   -2.0894 H         1 <0>         0.1348
     71 H31         7.7087   -8.8186   -0.4477 H         1 <0>         0.1330
     72 H32         6.7247  -10.8786    0.2520 H         1 <0>         0.1292
     73 H33         5.1555  -10.0645    0.0491 H         1 <0>         0.1325
     74 H34         4.8909  -12.5305    0.0195 H         1 <0>         0.1123
     75 H35         4.4514  -11.8217   -1.5538 H         1 <0>         0.0879
     76 H36         7.1234  -13.1171   -0.8407 H         1 <0>         0.0817
     77 H37         5.8681  -13.8060   -1.9005 H         1 <0>         0.0943
     78 H38         7.7039  -12.7051   -3.1989 H         1 <0>         0.1125
     79 H39         6.1259  -11.9256   -3.4697 H         1 <0>         0.0879
     80 H40         7.9013  -10.2349   -3.0925 H         1 <0>         0.1306
     81 H41         8.2707  -10.9746   -1.5168 H         1 <0>         0.1288
     82 H42         5.6706   -9.8547   -2.2867 H         1 <0>         0.4237
@<TRIPOS>BOND
     1    1    2 1
     2    1   43 1
     3    1   44 1
     4    1   45 1
     5    2    3 1
     6    2    4 1
     7    2   13 1
     8    4    5 1
     9    4   46 1
    10    4   47 1
    11    5    6 1
    12    5   48 1
    13    5   49 1
    14    6   11 ar
    15    6    7 ar
    16    7    8 ar
    17    7   50 1
    18    8    9 ar
    19    8   51 1
    20    9   10 ar
    21    9   12 1
    22   10   11 ar
    23   10   52 1
    24   11   53 1
    25   12   54 1
    26   13   14 am
    27   13   55 1
    28   14   15 2
    29   14   16 1
    30   16   17 1
    31   16   56 1
    32   16   57 1
    33   17   26 2
    34   17   18 1
    35   18   23 ar
    36   18   19 ar
    37   19   20 ar
    38   19   58 1
    39   20   21 ar
    40   20   33 1
    41   21   22 ar
    42   21   59 1
    43   22   23 ar
    44   22   60 1
    45   23   24 1
    46   24   25 1
    47   24   26 1
    48   26   27 1
    49   27   32 ar
    50   27   28 ar
    51   28   29 ar
    52   28   61 1
    53   29   30 ar
    54   29   62 1
    55   30   31 ar
    56   30   63 1
    57   31   32 ar
    58   31   64 1
    59   32   65 1
    60   33   34 1
    61   34   35 1
    62   34   66 1
    63   34   67 1
    64   35   36 1
    65   35   68 1
    66   35   69 1
    67   36   37 1
    68   36   70 1
    69   36   71 1
    70   37   42 1
    71   37   38 1
    72   37   82 1
    73   38   39 1
    74   38   72 1
    75   38   73 1
    76   39   40 1
    77   39   74 1
    78   39   75 1
    79   40   41 1
    80   40   76 1
    81   40   77 1
    82   41   42 1
    83   41   78 1
    84   41   79 1
    85   42   80 1
    86   42   81 1
@<TRIPOS>MOLECULE
CHEMBL520107
   67    71     0     0     0
SMALL
USER_CHARGES

@<TRIPOS>ATOM
      1 C1          0.5713    1.8895   -0.0164 C.3       1 <0>        -0.0816
      2 C2          0.6525    0.3864   -0.0882 C.2       1 <0>        -0.1868
      3 C3          0.6344   -0.3889   -1.2601 C.2       1 <0>         0.1284
      4 N1          0.7250   -1.6582   -0.9191 N.2       1 <0>        -0.2590
      5 N2          0.8039   -1.7370    0.4771 N.pl3     1 <0>        -0.3161
      6 C4          0.7628   -0.4646    0.9729 C.2       1 <0>         0.1128
      7 C5          0.8241   -0.0797    2.3998 C.ar      1 <0>        -0.0527
      8 C6          1.6401    0.9775    2.8048 C.ar      1 <0>        -0.0484
      9 C7          1.6947    1.3333    4.1356 C.ar      1 <0>        -0.1379
     10 C8          0.9390    0.6412    5.0726 C.ar      1 <0>         0.1252
     11 C9          0.1258   -0.4112    4.6735 C.ar      1 <0>        -0.1991
     12 C10         0.0616   -0.7691    3.3437 C.ar      1 <0>        -0.0526
     13 O1          0.9956    0.9945    6.3834 O.3       1 <0>        -0.3258
     14 C11         0.1926    0.2405    7.2938 C.3       1 <0>         0.0244
     15 C12         0.3866    0.7801    8.7123 C.3       1 <0>        -0.0010
     16 N3         -0.0971    2.1656    8.7796 N.4       1 <0>        -0.3842
     17 C13         0.2286    2.7327   10.0937 C.3       1 <0>        -0.0071
     18 C14        -0.2006    4.2007   10.1404 C.3       1 <0>        -0.1467
     19 C15        -1.7107    4.2932    9.9028 C.3       1 <0>        -0.1391
     20 C16        -2.0481    3.6322    8.5633 C.3       1 <0>        -0.1455
     21 C17        -1.5505    2.1853    8.5749 C.3       1 <0>        -0.0132
     22 C18         0.9112   -2.9128    1.2317 C.ar      1 <0>         0.1415
     23 C19         1.6606   -2.9219    2.4008 C.ar      1 <0>        -0.1098
     24 C20         1.7655   -4.0806    3.1441 C.ar      1 <0>        -0.1259
     25 C21         1.1228   -5.2359    2.7230 C.ar      1 <0>         0.1100
     26 C22         0.3738   -5.2275    1.5550 C.ar      1 <0>        -0.1239
     27 C23         0.2634   -4.0680    0.8138 C.ar      1 <0>        -0.0909
     28 O2          1.2272   -6.3767    3.4548 O.3       1 <0>        -0.4934
     29 C24         0.5308    0.1331   -2.6454 C.ar      1 <0>        -0.0322
     30 C25         1.2525    1.2646   -3.0209 C.ar      1 <0>        -0.0757
     31 C26         1.1546    1.7471   -4.3092 C.ar      1 <0>        -0.1451
     32 C27         0.3378    1.1071   -5.2314 C.ar      1 <0>         0.1204
     33 C28        -0.3827   -0.0199   -4.8601 C.ar      1 <0>        -0.1449
     34 C29        -0.2840   -0.5107   -3.5749 C.ar      1 <0>        -0.0711
     35 O3          0.2430    1.5851   -6.4999 O.3       1 <0>        -0.4987
     36 H1          1.5776    2.3060    0.0275 H         1 <0>         0.0685
     37 H2          0.0595    2.2684   -0.9011 H         1 <0>         0.0744
     38 H3          0.0180    2.1812    0.8762 H         1 <0>         0.0648
     39 H4          2.2285    1.5160    2.0766 H         1 <0>         0.1435
     40 H5          2.3263    2.1511    4.4498 H         1 <0>         0.1404
     41 H6         -0.4605   -0.9471    5.4052 H         1 <0>         0.1320
     42 H7         -0.5747   -1.5847    3.0333 H         1 <0>         0.1297
     43 H8         -0.8565    0.3288    7.0118 H         1 <0>         0.0875
     44 H9          0.4911   -0.8073    7.2597 H         1 <0>         0.1104
     45 H10        -0.1750    0.1647    9.4151 H         1 <0>         0.1494
     46 H11         1.4453    0.7520    8.9701 H         1 <0>         0.1431
     47 H12        -0.2970    2.1760   10.8695 H         1 <0>         0.1292
     48 H13         1.3032    2.6632   10.2626 H         1 <0>         0.1313
     49 H14         0.0404    4.6194   11.1175 H         1 <0>         0.1132
     50 H15         0.3246    4.7584    9.3651 H         1 <0>         0.0882
     51 H16        -2.2382    3.7789   10.7062 H         1 <0>         0.0821
     52 H17        -2.0124    5.3403    9.8789 H         1 <0>         0.0950
     53 H18        -3.1277    3.6446    8.4130 H         1 <0>         0.1124
     54 H19        -1.5612    4.1781    7.7552 H         1 <0>         0.0882
     55 H20        -1.7893    1.7117    7.6227 H         1 <0>         0.1271
     56 H21        -2.0382    1.6403    9.3832 H         1 <0>         0.1303
     57 H22         2.1615   -2.0229    2.7284 H         1 <0>         0.1333
     58 H23         2.3483   -4.0879    4.0533 H         1 <0>         0.1380
     59 H24        -0.1259   -6.1272    1.2276 H         1 <0>         0.1423
     60 H25        -0.3233   -4.0604   -0.0930 H         1 <0>         0.1404
     61 H26         0.5405   -6.4762    4.1283 H         1 <0>         0.3938
     62 H27         1.8876    1.7633   -2.3037 H         1 <0>         0.1318
     63 H28         1.7137    2.6239   -4.6008 H         1 <0>         0.1356
     64 H29        -1.0179   -0.5153   -5.5794 H         1 <0>         0.1348
     65 H30        -0.8412   -1.3901   -3.2879 H         1 <0>         0.1301
     66 H31         0.8924    1.2108   -7.1108 H         1 <0>         0.3958
     67 H32         0.3504    2.7123    8.0593 H         1 <0>         0.4294
@<TRIPOS>BOND
     1    1    2 1
     2    1   36 1
     3    1   37 1
     4    1   38 1
     5    2    6 2
     6    2    3 1
     7    3    4 2
     8    3   29 1
     9    4    5 1
    10    5    6 1
    11    5   22 1
    12    6    7 1
    13    7   12 ar
    14    7    8 ar
    15    8    9 ar
    16    8   39 1
    17    9   10 ar
    18    9   40 1
    19   10   11 ar
    20   10   13 1
    21   11   12 ar
    22   11   41 1
    23   12   42 1
    24   13   14 1
    25   14   15 1
    26   14   43 1
    27   14   44 1
    28   15   16 1
    29   15   45 1
    30   15   46 1
    31   16   21 1
    32   16   17 1
    33   16   67 1
    34   17   18 1
    35   17   47 1
    36   17   48 1
    37   18   19 1
    38   18   49 1
    39   18   50 1
    40   19   20 1
    41   19   51 1
    42   19   52 1
    43   20   21 1
    44   20   53 1
    45   20   54 1
    46   21   55 1
    47   21   56 1
    48   22   27 ar
    49   22   23 ar
    50   23   24 ar
    51   23   57 1
    52   24   25 ar
    53   24   58 1
    54   25   26 ar
    55   25   28 1
    56   26   27 ar
    57   26   59 1
    58   27   60 1
    59   28   61 1
    60   29   34 ar
    61   29   30 ar
    62   30   31 ar
    63   30   62 1
    64   31   32 ar
    65   31   63 1
    66   32   33 ar
    67   32   35 1
    68   33   34 ar
    69   33   64 1
    70   34   65 1
    71   35   66 1
@<TRIPOS>MOLECULE
CHEMBL1082421
   35    37     0     0     0
SMALL
USER_CHARGES

@<TRIPOS>ATOM
      1 C1          1.7416    1.3654    4.1983 C.3       1 <0>        -0.1164
      2 C2          1.8696   -0.1052    3.8947 C.ar      1 <0>        -0.0472
      3 C3          3.0177   -0.7874    4.2539 C.ar      1 <0>        -0.1451
      4 C4          3.1385   -2.1364    3.9766 C.ar      1 <0>        -0.0749
      5 C5          2.1119   -2.8067    3.3399 C.ar      1 <0>        -0.1928
      6 C6          0.9587   -2.1247    2.9788 C.ar      1 <0>         0.1225
      7 C7          0.8379   -0.7716    3.2631 C.ar      1 <0>        -0.1337
      8 O1         -0.0523   -2.7814    2.3522 O.3       1 <0>        -0.2207
      9 C8          0.0578   -4.1299    2.2022 C.2       1 <0>        -0.0233
     10 C9          0.0340   -4.9823    3.3426 C.2       1 <0>         0.4081
     11 O2         -0.0841   -4.5320    4.4700 O.2       1 <0>        -0.4174
     12 C10         0.1574   -6.4306    3.1040 C.ar      1 <0>        -0.2297
     13 C11         0.1442   -7.3452    4.1583 C.ar      1 <0>        -0.0052
     14 C12         0.2606   -8.6805    3.8977 C.ar      1 <0>        -0.1658
     15 C13         0.3925   -9.1340    2.5865 C.ar      1 <0>         0.1859
     16 C14         0.4078   -8.2394    1.5299 C.ar      1 <0>        -0.1636
     17 C15         0.2900   -6.8788    1.7779 C.ar      1 <0>         0.1653
     18 O3          0.3011   -5.9863    0.7674 O.3       1 <0>        -0.1869
     19 C16         0.1843   -4.6678    0.9728 C.2       1 <0>         0.0500
     20 C17         0.2013   -3.7469   -0.2200 C.3       1 <0>         0.5326
     21 F1          0.2463   -2.4186    0.2170 F         1 <0>        -0.1356
     22 F2          1.3284   -4.0187   -1.0029 F         1 <0>        -0.1565
     23 F3         -0.9550   -3.9485   -0.9812 F         1 <0>        -0.1561
     24 O4          0.5073  -10.4645    2.3431 O.3       1 <0>        -0.4875
     25 H1          1.2966    1.4954    5.1848 H         1 <0>         0.0760
     26 H2          2.7288    1.8271    4.1812 H         1 <0>         0.0715
     27 H3          1.1068    1.8373    3.4483 H         1 <0>         0.0707
     28 H4          3.8214   -0.2653    4.7517 H         1 <0>         0.1285
     29 H5          4.0365   -2.6666    4.2575 H         1 <0>         0.1289
     30 H6          2.2069   -3.8604    3.1231 H         1 <0>         0.1152
     31 H7         -0.0604   -0.2395    2.9870 H         1 <0>         0.1358
     32 H8          0.0425   -6.9982    5.1759 H         1 <0>         0.1535
     33 H9          0.2509   -9.3894    4.7124 H         1 <0>         0.1498
     34 H10         0.5111   -8.5989    0.5167 H         1 <0>         0.1581
     35 H11        -0.3380  -10.9137    2.2063 H         1 <0>         0.4062
@<TRIPOS>BOND
     1    1    2 1
     2    1   25 1
     3    1   26 1
     4    1   27 1
     5    2    7 ar
     6    2    3 ar
     7    3    4 ar
     8    3   28 1
     9    4    5 ar
    10    4   29 1
    11    5    6 ar
    12    5   30 1
    13    6    7 ar
    14    6    8 1
    15    7   31 1
    16    8    9 1
    17    9   19 2
    18    9   10 1
    19   10   11 2
    20   10   12 1
    21   12   17 ar
    22   12   13 ar
    23   13   14 ar
    24   13   32 1
    25   14   15 ar
    26   14   33 1
    27   15   16 ar
    28   15   24 1
    29   16   17 ar
    30   16   34 1
    31   17   18 1
    32   18   19 1
    33   19   20 1
    34   20   21 1
    35   20   22 1
    36   20   23 1
    37   24   35 1
@<TRIPOS>MOLECULE
CHEMBL245378
   52    56     0     0     0
SMALL
USER_CHARGES

@<TRIPOS>ATOM
      1 C1         -0.0187    1.5258    0.0104 C.3       1 <0>        -0.1329
      2 C2          0.0021   -0.0041    0.0020 C.3       1 <0>        -0.0575
      3 C3         -1.4161   -0.5355    0.0648 C.3       1 <0>        -0.1034
      4 C4         -2.0852    0.0905    1.3006 C.3       1 <0>        -0.1146
      5 C5         -1.3035   -0.2231    2.5710 C.3       1 <0>        -0.0652
      6 H1         -1.3067   -1.3058    2.6973 H         1 <0>         0.0636
      7 C6          0.1592    0.2227    2.4640 C.3       1 <0>        -0.0700
      8 H2          0.2051    1.3019    2.3181 H         1 <0>         0.0852
      9 C7          0.7521   -0.5252    1.2582 C.3       1 <0>        -0.0827
     10 H3          0.6170   -1.6015    1.3645 H         1 <0>         0.0771
     11 C8          2.2059   -0.1836    0.9136 C.3       1 <0>        -0.1132
     12 C9          2.3064   -0.5657   -0.5885 C.3       1 <0>        -0.1571
     13 C10         0.8652   -0.5010   -1.1528 C.3       1 <0>         0.1101
     14 H4          0.5387   -1.4916   -1.4693 H         1 <0>         0.0564
     15 O1          0.8028    0.4153   -2.2476 O.3       1 <0>        -0.5598
     16 C11         0.8988   -0.1573    3.7531 C.3       1 <0>        -0.0821
     17 C12         0.2728    0.6440    4.8784 C.2       1 <0>        -0.1397
     18 C13        -0.9985    0.8835    4.8076 C.2       1 <0>        -0.1140
     19 C14        -1.9670    0.3755    3.7861 C.3       1 <0>        -0.0244
     20 C15        -2.8025    1.6270    3.4657 C.3       1 <0>        -0.1142
     21 C16        -2.7324    2.4935    4.7441 C.3       1 <0>        -0.1189
     22 C17        -1.8796    1.7253    5.7145 C.3       1 <0>        -0.0495
     23 H5         -1.3034    2.3999    6.3478 H         1 <0>         0.0857
     24 C18        -2.7702    0.7637    6.5180 C.3       1 <0>         0.1153
     25 H6         -2.1458    0.0408    7.0430 H         1 <0>         0.0544
     26 C19        -3.7055    0.0286    5.5545 C.3       1 <0>        -0.1549
     27 C20        -2.8787   -0.6518    4.4730 C.3       1 <0>        -0.0993
     28 O2         -3.5423    1.5053    7.4646 O.3       1 <0>        -0.5667
     29 H7          1.0039    1.9031    0.0027 H         1 <0>         0.0537
     30 H8         -0.5459    1.8868   -0.8726 H         1 <0>         0.0587
     31 H9         -0.5289    1.8773    0.9072 H         1 <0>         0.0602
     32 H10        -1.9595   -0.2495   -0.8358 H         1 <0>         0.0660
     33 H11        -1.4014   -1.6211    0.1610 H         1 <0>         0.0613
     34 H12        -2.1357    1.1715    1.1702 H         1 <0>         0.0721
     35 H13        -3.0967   -0.3040    1.3973 H         1 <0>         0.0614
     36 H14         2.3959    0.8804    1.0544 H         1 <0>         0.0709
     37 H15         2.8945   -0.7817    1.5105 H         1 <0>         0.0661
     38 H16         2.9459    0.1442   -1.1131 H         1 <0>         0.0723
     39 H17         2.7038   -1.5754   -0.6919 H         1 <0>         0.0665
     40 H18         1.3328    0.1513   -3.0121 H         1 <0>         0.3747
     41 H19         0.7833   -1.2236    3.9473 H         1 <0>         0.0721
     42 H20         1.9559    0.0925    3.6624 H         1 <0>         0.0734
     43 H21         0.8647    1.0014    5.7081 H         1 <0>         0.1168
     44 H22        -2.3719    2.1636    2.6203 H         1 <0>         0.0694
     45 H23        -3.8347    1.3489    3.2527 H         1 <0>         0.0669
     46 H24        -2.2955    3.4658    4.5162 H         1 <0>         0.0654
     47 H25        -3.7283    2.6182    5.1693 H         1 <0>         0.0726
     48 H26        -4.2802   -0.7160    6.1052 H         1 <0>         0.0646
     49 H27        -4.3879    0.7441    5.0956 H         1 <0>         0.0782
     50 H28        -3.5646   -1.0779    3.7408 H         1 <0>         0.0669
     51 H29        -2.2710   -1.4441    4.9101 H         1 <0>         0.0644
     52 H30        -4.1284    0.9602    8.0073 H         1 <0>         0.3779
@<TRIPOS>BOND
     1    1    2 1
     2    1   29 1
     3    1   30 1
     4    1   31 1
     5    2    9 1
     6    2   13 1
     7    2    3 1
     8    3    4 1
     9    3   32 1
    10    3   33 1
    11    4    5 1
    12    4   34 1
    13    4   35 1
    14    5    6 1
    15    5   19 1
    16    5    7 1
    17    7    8 1
    18    7    9 1
    19    7   16 1
    20    9   10 1
    21    9   11 1
    22   11   12 1
    23   11   36 1
    24   11   37 1
    25   12   13 1
    26   12   38 1
    27   12   39 1
    28   13   14 1
    29   13   15 1
    30   15   40 1
    31   16   17 1
    32   16   41 1
    33   16   42 1
    34   17   18 2
    35   17   43 1
    36   18   22 1
    37   18   19 1
    38   19   27 1
    39   19   20 1
    40   20   21 1
    41   20   44 1
    42   20   45 1
    43   21   22 1
    44   21   46 1
    45   21   47 1
    46   22   23 1
    47   22   24 1
    48   24   25 1
    49   24   26 1
    50   24   28 1
    51   26   27 1
    52   26   48 1
    53   26   49 1
    54   27   50 1
    55   27   51 1
    56   28   52 1
@<TRIPOS>MOLECULE
CHEMBL93230
   71    76     0     0     0
SMALL
USER_CHARGES

@<TRIPOS>ATOM
      1 C1          2.1927   -3.5019   -2.2435 C.ar      1 <0>        -0.1214
      2 C2          3.5008   -3.0390   -2.3747 C.ar      1 <0>        -0.0830
      3 C3          3.9558   -2.0012   -1.6210 C.ar      1 <0>        -0.1506
      4 C4          3.0962   -1.3844   -0.6958 C.ar      1 <0>         0.0322
      5 C5          1.7657   -1.8549   -0.5627 C.ar      1 <0>        -0.0739
      6 C6          1.3322   -2.9294   -1.3582 C.ar      1 <0>        -0.0892
      7 C7          0.9062   -1.2381    0.3618 C.ar      1 <0>        -0.0361
      8 C8          1.3612   -0.1997    1.1154 C.ar      1 <0>        -0.1496
      9 C9          2.6688    0.2631    0.9843 C.ar      1 <0>         0.0115
     10 C10         3.5298   -0.3103    0.0994 C.ar      1 <0>        -0.6769
     11 S1          5.1793    0.2914   -0.0480 S.o2      1 <0>         2.6923
     12 O1          5.3236    1.3221    0.9195 O.2       1 <0>        -0.9510
     13 O2          6.0264   -0.8490   -0.0783 O.2       1 <0>        -0.9444
     14 N1          5.3058    1.0146   -1.5324 N.pl3     1 <0>        -0.9900
     15 C11         5.8641    0.2953   -2.6893 C.3       1 <0>         0.1039
     16 C12         4.7554    0.1478   -3.7301 C.3       1 <0>        -0.1138
     17 C13         4.0452    1.4583   -3.9463 C.ar      1 <0>        -0.0390
     18 C14         3.3268    1.6135   -5.1249 C.ar      1 <0>        -0.1460
     19 C15         2.6426    2.7887   -5.3820 C.ar      1 <0>         0.1170
     20 C16         2.6740    3.8198   -4.4539 C.ar      1 <0>        -0.1460
     21 C17         3.3907    3.6652   -3.2865 C.ar      1 <0>        -0.0878
     22 C18         4.0815    2.4875   -3.0320 C.ar      1 <0>        -0.1011
     23 C19         4.8606    2.3953   -1.7486 C.3       1 <0>         0.2461
     24 C20         6.0613    3.3024   -1.8301 C.ar      1 <0>        -0.1145
     25 C21         6.9571    3.1692   -2.8749 C.ar      1 <0>        -0.0583
     26 C22         8.0588    3.9991   -2.9517 C.ar      1 <0>        -0.1424
     27 C23         8.2657    4.9671   -1.9797 C.ar      1 <0>         0.1184
     28 C24         7.3652    5.0990   -0.9327 C.ar      1 <0>        -0.2015
     29 C25         6.2622    4.2700   -0.8632 C.ar      1 <0>        -0.0562
     30 O3          9.3490    5.7845   -2.0528 O.3       1 <0>        -0.3283
     31 C26         9.4982    6.7580   -1.0173 C.3       1 <0>         0.0264
     32 C27        10.7652    7.5784   -1.2674 C.3       1 <0>         0.0037
     33 N2         10.6117    8.3506   -2.5076 N.4       1 <0>        -0.3958
     34 C28         9.5878    9.4114   -2.3271 C.3       1 <0>        -0.0103
     35 C29         9.9388   10.4353   -3.4357 C.3       1 <0>        -0.1447
     36 C30        11.4844   10.4095   -3.4533 C.3       1 <0>        -0.1450
     37 C31        11.8713    9.0563   -2.8282 C.3       1 <0>        -0.0087
     38 O4          1.9436    2.9325   -6.5385 O.3       1 <0>        -0.4993
     39 H1          1.8556   -4.3245   -2.8568 H         1 <0>         0.1311
     40 H2          4.1634   -3.5112   -3.0849 H         1 <0>         0.1326
     41 H3          4.9722   -1.6537   -1.7330 H         1 <0>         0.1387
     42 H4          0.3213   -3.2985   -1.2677 H         1 <0>         0.1337
     43 H5         -0.1101   -1.5856    0.4738 H         1 <0>         0.1386
     44 H6          0.6984    0.2727    1.8254 H         1 <0>         0.1376
     45 H7          3.0045    1.0888    1.5941 H         1 <0>         0.1441
     46 H8          6.6932    0.8631   -3.1116 H         1 <0>         0.0904
     47 H9          6.2115   -0.6900   -2.3784 H         1 <0>         0.1083
     48 H10         5.1904   -0.1839   -4.6729 H         1 <0>         0.0950
     49 H11         4.0373   -0.5965   -3.3860 H         1 <0>         0.0951
     50 H12         3.3017    0.8103   -5.8465 H         1 <0>         0.1310
     51 H13         2.1393    4.7385   -4.6449 H         1 <0>         0.1309
     52 H14         3.4153    4.4670   -2.5634 H         1 <0>         0.1267
     53 H15         4.2276    2.7066   -0.9176 H         1 <0>         0.1088
     54 H16         6.7956    2.4155   -3.6314 H         1 <0>         0.1388
     55 H17         8.7587    3.8943   -3.7676 H         1 <0>         0.1339
     56 H18         7.5241    5.8518   -0.1747 H         1 <0>         0.1297
     57 H19         5.5585    4.3752   -0.0507 H         1 <0>         0.1368
     58 H20         8.6319    7.4195   -1.0130 H         1 <0>         0.0857
     59 H21         9.5757    6.2545   -0.0537 H         1 <0>         0.1092
     60 H22        10.9272    8.2602   -0.4326 H         1 <0>         0.1487
     61 H23        11.6197    6.9081   -1.3602 H         1 <0>         0.1414
     62 H24         8.5861    9.0090   -2.4782 H         1 <0>         0.1334
     63 H25         9.6757    9.8670   -1.3408 H         1 <0>         0.1349
     64 H26         9.5367   10.1157   -4.3971 H         1 <0>         0.0983
     65 H27         9.5725   11.4279   -3.1739 H         1 <0>         0.1172
     66 H28        11.8522   10.4721   -4.4774 H         1 <0>         0.1055
     67 H29        11.8833   11.2298   -2.8564 H         1 <0>         0.1044
     68 H30        12.4478    9.2192   -1.9176 H         1 <0>         0.1314
     69 H31        12.4538    8.4715   -3.5401 H         1 <0>         0.1329
     70 H32         1.0231    2.6419   -6.4805 H         1 <0>         0.3950
     71 H33        10.3515    7.7404   -3.2679 H         1 <0>         0.4336
@<TRIPOS>BOND
     1    1    6 ar
     2    1    2 ar
     3    1   39 1
     4    2    3 ar
     5    2   40 1
     6    3    4 ar
     7    3   41 1
     8    4   10 ar
     9    4    5 ar
    10    5    6 ar
    11    5    7 ar
    12    6   42 1
    13    7    8 ar
    14    7   43 1
    15    8    9 ar
    16    8   44 1
    17    9   10 ar
    18    9   45 1
    19   10   11 1
    20   11   12 2
    21   11   13 2
    22   11   14 1
    23   14   23 1
    24   14   15 1
    25   15   16 1
    26   15   46 1
    27   15   47 1
    28   16   17 1
    29   16   48 1
    30   16   49 1
    31   17   22 ar
    32   17   18 ar
    33   18   19 ar
    34   18   50 1
    35   19   20 ar
    36   19   38 1
    37   20   21 ar
    38   20   51 1
    39   21   22 ar
    40   21   52 1
    41   22   23 1
    42   23   24 1
    43   23   53 1
    44   24   29 ar
    45   24   25 ar
    46   25   26 ar
    47   25   54 1
    48   26   27 ar
    49   26   55 1
    50   27   28 ar
    51   27   30 1
    52   28   29 ar
    53   28   56 1
    54   29   57 1
    55   30   31 1
    56   31   32 1
    57   31   58 1
    58   31   59 1
    59   32   33 1
    60   32   60 1
    61   32   61 1
    62   33   37 1
    63   33   34 1
    64   33   71 1
    65   34   35 1
    66   34   62 1
    67   34   63 1
    68   35   36 1
    69   35   64 1
    70   35   65 1
    71   36   37 1
    72   36   66 1
    73   36   67 1
    74   37   68 1
    75   37   69 1
    76   38   70 1
@<TRIPOS>MOLECULE
CHEMBL93230__1
   71    76     0     0     0
SMALL
USER_CHARGES

@<TRIPOS>ATOM
      1 C1         11.0546    4.8284   -0.5745 C.ar      1 <0>        -0.1175
      2 C2         10.5556    3.5414   -0.7679 C.ar      1 <0>        -0.0812
      3 C3          9.3171    3.1958   -0.3223 C.ar      1 <0>        -0.1529
      4 C4          8.5268    4.1483    0.3437 C.ar      1 <0>         0.0292
      5 C5          9.0345    5.4570    0.5408 C.ar      1 <0>        -0.0750
      6 C6         10.3181    5.7767    0.0659 C.ar      1 <0>        -0.0942
      7 C7          8.2447    6.4091    1.2070 C.ar      1 <0>        -0.0344
      8 C8          7.0060    6.0632    1.6531 C.ar      1 <0>        -0.1577
      9 C9          6.5072    4.7767    1.4598 C.ar      1 <0>        -0.0053
     10 C10         7.2437    3.8285    0.8183 C.ar      1 <0>        -0.6720
     11 S1          6.5912    2.2085    0.5846 S.o2      1 <0>         2.6903
     12 O1          7.6839    1.3087    0.7094 O.2       1 <0>        -0.9507
     13 O2          5.4313    2.1162    1.4003 O.2       1 <0>        -0.9403
     14 N1          6.0746    2.1106   -0.9857 N.pl3     1 <0>        -0.9922
     15 C11         6.9120    1.4985   -2.0305 C.3       1 <0>         0.1153
     16 C12         6.1894    0.2532   -2.5417 C.3       1 <0>        -0.1000
     17 C13         4.7434    0.5550   -2.8353 C.ar      1 <0>        -0.0435
     18 C14         4.0662   -0.3090   -3.6864 C.ar      1 <0>        -0.1462
     19 C15         2.7329   -0.0955   -3.9901 C.ar      1 <0>         0.1176
     20 C16         2.0673    0.9901   -3.4388 C.ar      1 <0>        -0.1456
     21 C17         2.7423    1.8486   -2.5974 C.ar      1 <0>        -0.0880
     22 C18         4.0817    1.6365   -2.2977 C.ar      1 <0>        -0.1029
     23 C19         4.7618    2.6248   -1.3902 C.3       1 <0>         0.2452
     24 C20         3.9116    2.8475   -0.1660 C.ar      1 <0>        -0.1183
     25 C21         3.1159    1.8251    0.3170 C.ar      1 <0>        -0.0158
     26 C22         2.3353    2.0269    1.4388 C.ar      1 <0>        -0.1304
     27 C23         2.3506    3.2565    2.0811 C.ar      1 <0>         0.1298
     28 C24         3.1502    4.2806    1.5947 C.ar      1 <0>        -0.2003
     29 C25         3.9329    4.0721    0.4757 C.ar      1 <0>        -0.0733
     30 O3          1.5833    3.4576    3.1845 O.3       1 <0>        -0.3288
     31 C26         1.6492    4.7484    3.7941 C.3       1 <0>         0.0261
     32 C27         0.7247    4.7848    5.0127 C.3       1 <0>         0.0035
     33 N2          1.2194    3.8484    6.0308 N.4       1 <0>        -0.3959
     34 C28         2.4999    4.3406    6.6002 C.3       1 <0>        -0.0111
     35 C29         2.5826    3.6146    7.9664 C.3       1 <0>        -0.1450
     36 C30         1.1125    3.6091    8.4445 C.3       1 <0>        -0.1449
     37 C31         0.2728    3.7817    7.1652 C.3       1 <0>        -0.0085
     38 O4          2.0786   -0.9451   -4.8250 O.3       1 <0>        -0.4976
     39 H1         12.0425    5.0755   -0.9344 H         1 <0>         0.1323
     40 H2         11.1609    2.8076   -1.2794 H         1 <0>         0.1339
     41 H3          8.9433    2.1949   -0.4799 H         1 <0>         0.1498
     42 H4         10.7179    6.7698    0.2088 H         1 <0>         0.1339
     43 H5          8.6186    7.4100    1.3646 H         1 <0>         0.1375
     44 H6          6.4009    6.7970    2.1649 H         1 <0>         0.1318
     45 H7          5.5213    4.5282    1.8240 H         1 <0>         0.1467
     46 H8          7.0549    2.2040   -2.8490 H         1 <0>         0.0852
     47 H9          7.8784    1.2182   -1.6114 H         1 <0>         0.1029
     48 H10         6.6754   -0.0944   -3.4534 H         1 <0>         0.0964
     49 H11         6.2458   -0.5298   -1.7854 H         1 <0>         0.0876
     50 H12         4.5843   -1.1545   -4.1143 H         1 <0>         0.1324
     51 H13         1.0258    1.1613   -3.6673 H         1 <0>         0.1321
     52 H14         2.2249    2.6935   -2.1676 H         1 <0>         0.1284
     53 H15         4.8895    3.5694   -1.9189 H         1 <0>         0.0978
     54 H16         3.1043    0.8681   -0.1833 H         1 <0>         0.1310
     55 H17         1.7134    1.2282    1.8153 H         1 <0>         0.1299
     56 H18         3.1639    5.2387    2.0930 H         1 <0>         0.1259
     57 H19         4.5589    4.8676    0.0992 H         1 <0>         0.1286
     58 H20         2.6732    4.9497    4.1088 H         1 <0>         0.0849
     59 H21         1.3341    5.5057    3.0763 H         1 <0>         0.1080
     60 H22         0.7066    5.7936    5.4250 H         1 <0>         0.1476
     61 H23        -0.2829    4.4966    4.7130 H         1 <0>         0.1411
     62 H24         3.3380    4.0582    5.9631 H         1 <0>         0.1343
     63 H25         2.4686    5.4212    6.7400 H         1 <0>         0.1345
     64 H26         2.9511    2.5966    7.8406 H         1 <0>         0.0988
     65 H27         3.2121    4.1707    8.6612 H         1 <0>         0.1170
     66 H28         0.8753    2.6613    8.9277 H         1 <0>         0.1055
     67 H29         0.9341    4.4385    9.1289 H         1 <0>         0.1041
     68 H30        -0.3046    4.7045    7.2218 H         1 <0>         0.1311
     69 H31        -0.3953    2.9294    7.0417 H         1 <0>         0.1328
     70 H32         1.6523   -1.6876   -4.3755 H         1 <0>         0.3941
     71 H33         1.3459    2.9317    5.6288 H         1 <0>         0.4345
@<TRIPOS>BOND
     1    1    6 ar
     2    1    2 ar
     3    1   39 1
     4    2    3 ar
     5    2   40 1
     6    3    4 ar
     7    3   41 1
     8    4   10 ar
     9    4    5 ar
    10    5    6 ar
    11    5    7 ar
    12    6   42 1
    13    7    8 ar
    14    7   43 1
    15    8    9 ar
    16    8   44 1
    17    9   10 ar
    18    9   45 1
    19   10   11 1
    20   11   12 2
    21   11   13 2
    22   11   14 1
    23   14   23 1
    24   14   15 1
    25   15   16 1
    26   15   46 1
    27   15   47 1
    28   16   17 1
    29   16   48 1
    30   16   49 1
    31   17   22 ar
    32   17   18 ar
    33   18   19 ar
    34   18   50 1
    35   19   20 ar
    36   19   38 1
    37   20   21 ar
    38   20   51 1
    39   21   22 ar
    40   21   52 1
    41   22   23 1
    42   23   24 1
    43   23   53 1
    44   24   29 ar
    45   24   25 ar
    46   25   26 ar
    47   25   54 1
    48   26   27 ar
    49   26   55 1
    50   27   28 ar
    51   27   30 1
    52   28   29 ar
    53   28   56 1
    54   29   57 1
    55   30   31 1
    56   31   32 1
    57   31   58 1
    58   31   59 1
    59   32   33 1
    60   32   60 1
    61   32   61 1
    62   33   37 1
    63   33   34 1
    64   33   71 1
    65   34   35 1
    66   34   62 1
    67   34   63 1
    68   35   36 1
    69   35   64 1
    70   35   65 1
    71   36   37 1
    72   36   66 1
    73   36   67 1
    74   37   68 1
    75   37   69 1
    76   38   70 1
@<TRIPOS>MOLECULE
CHEMBL373743
   39    42     0     0     0
SMALL
USER_CHARGES

@<TRIPOS>ATOM
      1 C1         -0.0168    1.3848    0.0097 C.ar      1 <0>        -0.1321
      2 C2          1.1485    2.0961    0.0023 C.ar      1 <0>        -0.0493
      3 C3          2.3734    1.4240   -0.0129 C.ar      1 <0>        -0.1409
      4 C4          2.3997    0.0180   -0.0207 C.ar      1 <0>         0.0977
      5 C5          1.1976   -0.6896   -0.0130 C.ar      1 <0>         0.0740
      6 C6          0.0021   -0.0041    0.0020 C.ar      1 <0>        -0.1016
      7 F1          1.2053   -2.0405   -0.0207 F         1 <0>        -0.1377
      8 N1          3.7194   -0.3569   -0.0360 N.pl3     1 <0>        -0.3836
      9 N2          4.5239    0.7871   -0.0380 N.2       1 <0>        -0.2223
     10 C7          3.7733    1.8618   -0.0247 C.2       1 <0>         0.1332
     11 C8          4.2523    3.2645   -0.0228 C.ar      1 <0>        -0.0266
     12 C9          3.5327    4.2495   -0.6985 C.ar      1 <0>        -0.0772
     13 C10         3.9811    5.5535   -0.6948 C.ar      1 <0>        -0.1437
     14 C11         5.1476    5.8862   -0.0193 C.ar      1 <0>         0.1181
     15 C12         5.8666    4.9079    0.6540 C.ar      1 <0>        -0.1445
     16 C13         5.4204    3.6031    0.6594 C.ar      1 <0>        -0.0702
     17 O1          5.5867    7.1722   -0.0176 O.3       1 <0>        -0.4987
     18 C14         4.2087   -1.7377   -0.0475 C.3       1 <0>         0.1576
     19 C15         5.1384   -1.9790    1.1597 C.3       1 <0>        -0.1324
     20 C16         6.2423   -2.9150    0.6079 C.3       1 <0>        -0.1222
     21 C17         6.4666   -2.3713   -0.8250 C.3       1 <0>        -0.1209
     22 C18         5.0532   -1.9871   -1.3094 C.3       1 <0>        -0.1332
     23 H1         -0.9620    1.9069    0.0260 H         1 <0>         0.1399
     24 H2          1.1237    3.1758    0.0080 H         1 <0>         0.1355
     25 H3         -0.9287   -0.5518    0.0083 H         1 <0>         0.1444
     26 H4          2.6255    3.9912   -1.2244 H         1 <0>         0.1331
     27 H5          3.4245    6.3168   -1.2182 H         1 <0>         0.1357
     28 H6          6.7737    5.1699    1.1782 H         1 <0>         0.1345
     29 H7          5.9774    2.8434    1.1877 H         1 <0>         0.1322
     30 H8          5.2448    7.7036    0.7143 H         1 <0>         0.3941
     31 H9          3.3686   -2.4315   -0.0173 H         1 <0>         0.1105
     32 H10         5.5712   -1.0390    1.5018 H         1 <0>         0.0822
     33 H11         4.5943   -2.4664    1.9687 H         1 <0>         0.0734
     34 H12         7.1531   -2.8294    1.2005 H         1 <0>         0.0743
     35 H13         5.8944   -3.9476    0.5792 H         1 <0>         0.0719
     36 H14         7.1139   -1.4946   -0.8034 H         1 <0>         0.0711
     37 H15         6.8918   -3.1450   -1.4644 H         1 <0>         0.0710
     38 H16         4.6234   -2.8026   -1.8912 H         1 <0>         0.0765
     39 H17         5.0990   -1.0808   -1.9132 H         1 <0>         0.0761
@<TRIPOS>BOND
     1    1    6 ar
     2    1    2 ar
     3    1   23 1
     4    2    3 ar
     5    2   24 1
     6    3   10 1
     7    3    4 ar
     8    4    5 ar
     9    4    8 1
    10    5    6 ar
    11    5    7 1
    12    6   25 1
    13    8    9 1
    14    8   18 1
    15    9   10 2
    16   10   11 1
    17   11   16 ar
    18   11   12 ar
    19   12   13 ar
    20   12   26 1
    21   13   14 ar
    22   13   27 1
    23   14   15 ar
    24   14   17 1
    25   15   16 ar
    26   15   28 1
    27   16   29 1
    28   17   30 1
    29   18   22 1
    30   18   19 1
    31   18   31 1
    32   19   20 1
    33   19   32 1
    34   19   33 1
    35   20   21 1
    36   20   34 1
    37   20   35 1
    38   21   22 1
    39   21   36 1
    40   21   37 1
    41   22   38 1
    42   22   39 1
@<TRIPOS>MOLECULE
CHEMBL369545
   66    70     0     0     0
SMALL
USER_CHARGES

@<TRIPOS>ATOM
      1 C1          2.0686   -1.4959    1.7680 C.3       1 <0>        -0.1561
      2 C2          1.5486   -1.1140    0.3807 C.3       1 <0>        -0.1449
      3 C3          0.0526   -1.4224    0.2940 C.3       1 <0>         0.0380
      4 H1         -0.4704   -0.9161    1.1054 H         1 <0>         0.1524
      5 C4         -0.1645   -2.9324    0.4112 C.3       1 <0>         0.0311
      6 O1          0.6141   -3.6040   -0.5811 O.3       1 <0>        -0.3221
      7 C5          0.5348   -4.9603   -0.6139 C.ar      1 <0>         0.1254
      8 C6         -0.2801   -5.6306    0.2867 C.ar      1 <0>        -0.2038
      9 C7         -0.3594   -7.0093    0.2510 C.ar      1 <0>        -0.0580
     10 C8          0.3730   -7.7212   -0.6809 C.ar      1 <0>        -0.1042
     11 C9          1.1864   -7.0555   -1.5793 C.ar      1 <0>        -0.0349
     12 C10         1.2643   -5.6765   -1.5518 C.ar      1 <0>        -0.1429
     13 C11         0.2851   -9.2252   -0.7173 C.3       1 <0>         0.1492
     14 H2         -0.0910   -9.5915    0.2379 H         1 <0>         0.0961
     15 C12        -0.6670   -9.6575   -1.8449 C.3       1 <0>        -0.0647
     16 H3         -1.6327   -9.1664   -1.7251 H         1 <0>         0.1384
     17 S1         -0.8669  -11.4620   -1.7094 S.3       1 <0>        -0.0812
     18 C13         0.7854  -12.0113   -1.4112 C.ar      1 <0>        -0.1487
     19 C14         1.0780  -13.3637   -1.5294 C.ar      1 <0>        -0.0896
     20 C15         2.3643  -13.8207   -1.2926 C.ar      1 <0>         0.0990
     21 C16         3.3569  -12.9204   -0.9341 C.ar      1 <0>        -0.1066
     22 C17         3.0674  -11.5763   -0.8197 C.ar      1 <0>        -0.1142
     23 C18         1.7795  -11.1043   -1.0617 C.ar      1 <0>         0.1204
     24 O2          1.5728   -9.7702   -0.9610 O.3       1 <0>        -0.3052
     25 O3          2.6520  -15.1444   -1.4104 O.3       1 <0>        -0.4917
     26 C19        -0.0729   -9.3032   -3.1837 C.ar      1 <0>        -0.0886
     27 C20        -0.5624   -8.2209   -3.8914 C.ar      1 <0>        -0.0834
     28 C21        -0.0198   -7.8943   -5.1191 C.ar      1 <0>        -0.1457
     29 C22         1.0174   -8.6531   -5.6417 C.ar      1 <0>         0.1151
     30 C23         1.5071   -9.7383   -4.9295 C.ar      1 <0>        -0.1392
     31 C24         0.9645  -10.0576   -3.6998 C.ar      1 <0>        -0.0877
     32 O4          1.5526   -8.3341   -6.8495 O.3       1 <0>        -0.4972
     33 N1         -0.4707   -0.9511   -0.9952 N.4       1 <0>        -0.3933
     34 C25        -1.9452   -1.1239   -1.0435 C.3       1 <0>        -0.0095
     35 C26        -2.3848   -0.1152   -2.1343 C.3       1 <0>        -0.1439
     36 C27        -1.4392    1.0846   -1.8968 C.3       1 <0>        -0.1443
     37 C28        -0.2298    0.5006   -1.1433 C.3       1 <0>        -0.0095
     38 H4          3.1463   -1.3376    1.8084 H         1 <0>         0.0794
     39 H5          1.5819   -0.8768    2.5216 H         1 <0>         0.0665
     40 H6          1.8480   -2.5455    1.9624 H         1 <0>         0.0654
     41 H7          1.7105   -0.0493    0.2124 H         1 <0>         0.0889
     42 H8          2.0822   -1.6869   -0.3777 H         1 <0>         0.0965
     43 H9          0.1422   -3.2678    1.4020 H         1 <0>         0.1096
     44 H10        -1.2197   -3.1606    0.2609 H         1 <0>         0.0858
     45 H11        -0.8519   -5.0751    1.0153 H         1 <0>         0.1307
     46 H12        -0.9937   -7.5316    0.9519 H         1 <0>         0.1346
     47 H13         1.7578   -7.6138   -2.3061 H         1 <0>         0.1379
     48 H14         1.8963   -5.1567   -2.2566 H         1 <0>         0.1341
     49 H15         0.3012  -14.0607   -1.8070 H         1 <0>         0.1407
     50 H16         4.3600  -13.2728   -0.7443 H         1 <0>         0.1428
     51 H17         3.8470  -10.8834   -0.5396 H         1 <0>         0.1410
     52 H18         2.9345  -15.4081   -2.2968 H         1 <0>         0.3949
     53 H19        -1.3699   -7.6306   -3.4841 H         1 <0>         0.1235
     54 H20        -0.4029   -7.0493   -5.6718 H         1 <0>         0.1295
     55 H21         2.3145  -10.3305   -5.3342 H         1 <0>         0.1312
     56 H22         1.3483  -10.8997   -3.1430 H         1 <0>         0.1321
     57 H23         2.2939   -7.7151   -6.8001 H         1 <0>         0.3922
     58 H24        -2.2038   -2.1421   -1.3344 H         1 <0>         0.1331
     59 H25        -2.3938   -0.8715   -0.0827 H         1 <0>         0.1342
     60 H26        -2.2346   -0.5335   -3.1295 H         1 <0>         0.0984
     61 H27        -3.4245    0.1789   -1.9911 H         1 <0>         0.1175
     62 H28        -1.1222    1.5106   -2.8487 H         1 <0>         0.1058
     63 H29        -1.9342    1.8418   -1.2887 H         1 <0>         0.1045
     64 H30        -0.1448    0.9651   -0.1609 H         1 <0>         0.1311
     65 H31         0.6817    0.6692   -1.7168 H         1 <0>         0.1325
     66 H32        -0.0353   -1.4552   -1.7531 H         1 <0>         0.4313
@<TRIPOS>BOND
     1    1    2 1
     2    1   38 1
     3    1   39 1
     4    1   40 1
     5    2    3 1
     6    2   41 1
     7    2   42 1
     8    3    4 1
     9    3    5 1
    10    3   33 1
    11    5    6 1
    12    5   43 1
    13    5   44 1
    14    6    7 1
    15    7   12 ar
    16    7    8 ar
    17    8    9 ar
    18    8   45 1
    19    9   10 ar
    20    9   46 1
    21   10   11 ar
    22   10   13 1
    23   11   12 ar
    24   11   47 1
    25   12   48 1
    26   13   14 1
    27   13   24 1
    28   13   15 1
    29   15   16 1
    30   15   17 1
    31   15   26 1
    32   17   18 1
    33   18   23 ar
    34   18   19 ar
    35   19   20 ar
    36   19   49 1
    37   20   21 ar
    38   20   25 1
    39   21   22 ar
    40   21   50 1
    41   22   23 ar
    42   22   51 1
    43   23   24 1
    44   25   52 1
    45   26   31 ar
    46   26   27 ar
    47   27   28 ar
    48   27   53 1
    49   28   29 ar
    50   28   54 1
    51   29   30 ar
    52   29   32 1
    53   30   31 ar
    54   30   55 1
    55   31   56 1
    56   32   57 1
    57   33   37 1
    58   33   34 1
    59   33   66 1
    60   34   35 1
    61   34   58 1
    62   34   59 1
    63   35   36 1
    64   35   60 1
    65   35   61 1
    66   36   37 1
    67   36   62 1
    68   36   63 1
    69   37   64 1
    70   37   65 1
@<TRIPOS>MOLECULE
CHEMBL135732
   37    40     0     0     0
SMALL
USER_CHARGES

@<TRIPOS>ATOM
      1 C1         -0.0187    1.5258    0.0104 C.3       1 <0>        -0.1364
      2 C2          0.0021   -0.0041    0.0020 C.3       1 <0>        -0.0497
      3 C3         -1.4094   -0.5394    0.0863 C.3       1 <0>        -0.1033
      4 C4         -2.1437    0.2180    1.2023 C.3       1 <0>        -0.0585
      5 C5         -1.2563    0.4008    2.4306 C.2       1 <0>        -0.1013
      6 C6         -1.7639    0.9547    3.6808 C.ar      1 <0>        -0.0917
      7 C7         -3.0961    1.3764    3.9261 C.ar      1 <0>        -0.0570
      8 C8         -3.3840    1.8729    5.1662 C.ar      1 <0>        -0.1494
      9 C9         -2.4427    1.9809    6.1832 C.ar      1 <0>         0.1249
     10 C10        -1.1240    1.5769    5.9843 C.ar      1 <0>        -0.0987
     11 C11        -0.8254    1.0754    4.7355 C.ar      1 <0>        -0.1097
     12 S1          0.6709    0.4553    4.0356 S.3       1 <0>         0.0567
     13 C12         0.0626    0.0569    2.4215 C.2       1 <0>        -0.1200
     14 C13         0.7536   -0.5338    1.2605 C.3       1 <0>        -0.0210
     15 H1          0.6738   -1.6203    1.2948 H         1 <0>         0.0930
     16 C14         2.1975   -0.1561    0.9779 C.3       1 <0>        -0.1106
     17 C15         2.3321   -0.2062   -0.5671 C.3       1 <0>        -0.1539
     18 C16         0.9091   -0.5071   -1.1196 C.3       1 <0>         0.1124
     19 H2          0.7734   -1.5772   -1.2761 H         1 <0>         0.0661
     20 O1          0.6707    0.2176   -2.3279 O.3       1 <0>        -0.5564
     21 O2         -2.8138    2.4873    7.3890 O.3       1 <0>        -0.4958
     22 H3          1.0039    1.9031    0.0027 H         1 <0>         0.0551
     23 H4         -0.5459    1.8868   -0.8726 H         1 <0>         0.0630
     24 H5         -0.5289    1.8773    0.9072 H         1 <0>         0.0609
     25 H6         -1.9202   -0.3809   -0.8635 H         1 <0>         0.0779
     26 H7         -1.3857   -1.6042    0.3185 H         1 <0>         0.0676
     27 H8         -2.4436    1.1977    0.8303 H         1 <0>         0.0795
     28 H9         -3.0347   -0.3420    1.4864 H         1 <0>         0.0759
     29 H10        -3.8549    1.3080    3.1605 H         1 <0>         0.1378
     30 H11        -4.3943    2.1982    5.3663 H         1 <0>         0.1295
     31 H12        -0.3793    1.6530    6.7627 H         1 <0>         0.1458
     32 H13         2.4043    0.8497    1.3436 H         1 <0>         0.0737
     33 H14         2.8743   -0.8746    1.4405 H         1 <0>         0.0725
     34 H15         2.6846    0.7541   -0.9436 H         1 <0>         0.0787
     35 H16         3.0218   -0.9988   -0.8574 H         1 <0>         0.0700
     36 H17         1.2221   -0.0640   -3.0707 H         1 <0>         0.3784
     37 H18        -3.1280    1.8211    8.0156 H         1 <0>         0.3939
@<TRIPOS>BOND
     1    1    2 1
     2    1   22 1
     3    1   23 1
     4    1   24 1
     5    2   14 1
     6    2   18 1
     7    2    3 1
     8    3    4 1
     9    3   25 1
    10    3   26 1
    11    4    5 1
    12    4   27 1
    13    4   28 1
    14    5   13 2
    15    5    6 1
    16    6   11 ar
    17    6    7 ar
    18    7    8 ar
    19    7   29 1
    20    8    9 ar
    21    8   30 1
    22    9   10 ar
    23    9   21 1
    24   10   11 ar
    25   10   31 1
    26   11   12 1
    27   12   13 1
    28   13   14 1
    29   14   15 1
    30   14   16 1
    31   16   17 1
    32   16   32 1
    33   16   33 1
    34   17   18 1
    35   17   34 1
    36   17   35 1
    37   18   19 1
    38   18   20 1
    39   20   36 1
    40   21   37 1
@<TRIPOS>MOLECULE
CHEMBL539849
   66    70     0     0     0
SMALL
USER_CHARGES

@<TRIPOS>ATOM
      1 C1          0.0664    1.0642   -0.9945 C.ar      1 <0>        -0.0685
      2 C2          1.0634    1.8504   -1.5388 C.ar      1 <0>        -0.1381
      3 C3          2.2928    1.2899   -1.8538 C.ar      1 <0>         0.1094
      4 C4          2.5176   -0.0592   -1.6211 C.ar      1 <0>        -0.1987
      5 C5          1.5173   -0.8410   -1.0766 C.ar      1 <0>        -0.0743
      6 C6          0.2929   -0.2801   -0.7636 C.ar      1 <0>        -0.0893
      7 C7         -0.7964   -1.1352   -0.1692 C.3       1 <0>        -0.0565
      8 C8         -1.6372   -1.7184   -1.2756 C.ar      1 <0>        -0.0512
      9 C9         -1.2989   -2.9564   -1.8433 C.ar      1 <0>        -0.0492
     10 C10        -0.1762   -3.6773   -1.3973 C.ar      1 <0>        -0.0960
     11 C11         0.1263   -4.8746   -1.9664 C.ar      1 <0>        -0.1353
     12 C12        -0.6642   -5.4025   -2.9920 C.ar      1 <0>         0.1123
     13 C13        -1.7610   -4.7288   -3.4494 C.ar      1 <0>        -0.1328
     14 C14        -2.1020   -3.4898   -2.8832 C.ar      1 <0>        -0.0323
     15 C15        -3.2260   -2.7723   -3.3318 C.ar      1 <0>        -0.1033
     16 C16        -3.5363   -1.5760   -2.7692 C.ar      1 <0>        -0.0957
     17 C17        -2.7509   -1.0407   -1.7352 C.ar      1 <0>        -0.0394
     18 C18        -3.1164    0.2654   -1.1350 C.ar      1 <0>        -0.0540
     19 C19        -3.3395    0.3655    0.2374 C.ar      1 <0>        -0.0931
     20 C20        -3.6787    1.5814    0.7925 C.ar      1 <0>        -0.1421
     21 C21        -3.7982    2.7052   -0.0140 C.ar      1 <0>         0.1096
     22 C22        -3.5767    2.6087   -1.3811 C.ar      1 <0>        -0.1433
     23 C23        -3.2320    1.3967   -1.9414 C.ar      1 <0>        -0.0894
     24 O1         -4.1330    3.9018    0.5359 O.3       1 <0>        -0.4970
     25 O2         -0.3367   -6.6014   -3.5414 O.3       1 <0>        -0.5001
     26 O3          3.2751    2.0611   -2.3898 O.3       1 <0>        -0.3291
     27 C24         4.5150    1.4169   -2.6891 C.3       1 <0>         0.0260
     28 C25         5.4900    2.4369   -3.2805 C.3       1 <0>        -0.0009
     29 N1          5.7816    3.4726   -2.2804 N.4       1 <0>        -0.3838
     30 C26         6.5929    4.5300   -2.8953 C.3       1 <0>        -0.0072
     31 C27         6.8314    5.6504   -1.8807 C.3       1 <0>        -0.1466
     32 C28         7.5679    5.0819   -0.6644 C.3       1 <0>        -0.1390
     33 C29         6.7476    3.9305   -0.0755 C.3       1 <0>        -0.1452
     34 C30         6.5123    2.8739   -1.1569 C.3       1 <0>        -0.0131
     35 H1         -0.8893    1.5010   -0.7449 H         1 <0>         0.1345
     36 H2          0.8859    2.9003   -1.7194 H         1 <0>         0.1312
     37 H3          3.4736   -0.4979   -1.8658 H         1 <0>         0.1265
     38 H4          1.6917   -1.8913   -0.8953 H         1 <0>         0.1295
     39 H5         -0.3490   -1.9422    0.4110 H         1 <0>         0.0875
     40 H6         -1.4236   -0.5249    0.4806 H         1 <0>         0.0981
     41 H7          0.4431   -3.2811   -0.6062 H         1 <0>         0.1308
     42 H8          0.9892   -5.4252   -1.6218 H         1 <0>         0.1307
     43 H9         -2.3629   -5.1470   -4.2426 H         1 <0>         0.1360
     44 H10        -3.8417   -3.1728   -4.1236 H         1 <0>         0.1325
     45 H11        -4.4005   -1.0307   -3.1190 H         1 <0>         0.1288
     46 H12        -3.2470   -0.5084    0.8652 H         1 <0>         0.1317
     47 H13        -3.8520    1.6595    1.8557 H         1 <0>         0.1332
     48 H14        -3.6707    3.4846   -2.0060 H         1 <0>         0.1316
     49 H15        -3.0558    1.3231   -3.0044 H         1 <0>         0.1284
     50 H16        -3.3746    4.4296    0.8211 H         1 <0>         0.3914
     51 H17        -0.7441   -7.3601   -3.1014 H         1 <0>         0.3951
     52 H18         4.9370    0.9985   -1.7753 H         1 <0>         0.0858
     53 H19         4.3443    0.6172   -3.4099 H         1 <0>         0.1086
     54 H20         6.4149    1.9341   -3.5631 H         1 <0>         0.1487
     55 H21         5.0434    2.8981   -4.1615 H         1 <0>         0.1423
     56 H22         7.5507    4.1157   -3.2102 H         1 <0>         0.1291
     57 H23         6.0689    4.9314   -3.7627 H         1 <0>         0.1309
     58 H24         7.4354    6.4336   -2.3387 H         1 <0>         0.1130
     59 H25         5.8742    6.0656   -1.5654 H         1 <0>         0.0879
     60 H26         8.5466    4.7127   -0.9707 H         1 <0>         0.0821
     61 H27         7.6901    5.8633    0.0857 H         1 <0>         0.0947
     62 H28         7.2918    3.4844    0.7569 H         1 <0>         0.1122
     63 H29         5.7887    4.3100    0.2774 H         1 <0>         0.0877
     64 H30         5.9287    2.0526   -0.7410 H         1 <0>         0.1273
     65 H31         7.4718    2.4949   -1.5089 H         1 <0>         0.1301
     66 H32         4.9160    3.8678   -1.9448 H         1 <0>         0.4293
@<TRIPOS>BOND
     1    1    6 ar
     2    1    2 ar
     3    1   35 1
     4    2    3 ar
     5    2   36 1
     6    3    4 ar
     7    3   26 1
     8    4    5 ar
     9    4   37 1
    10    5    6 ar
    11    5   38 1
    12    6    7 1
    13    7    8 1
    14    7   39 1
    15    7   40 1
    16    8   17 ar
    17    8    9 ar
    18    9   14 ar
    19    9   10 ar
    20   10   11 ar
    21   10   41 1
    22   11   12 ar
    23   11   42 1
    24   12   13 ar
    25   12   25 1
    26   13   14 ar
    27   13   43 1
    28   14   15 ar
    29   15   16 ar
    30   15   44 1
    31   16   17 ar
    32   16   45 1
    33   17   18 1
    34   18   23 ar
    35   18   19 ar
    36   19   20 ar
    37   19   46 1
    38   20   21 ar
    39   20   47 1
    40   21   22 ar
    41   21   24 1
    42   22   23 ar
    43   22   48 1
    44   23   49 1
    45   24   50 1
    46   25   51 1
    47   26   27 1
    48   27   28 1
    49   27   52 1
    50   27   53 1
    51   28   29 1
    52   28   54 1
    53   28   55 1
    54   29   34 1
    55   29   30 1
    56   29   66 1
    57   30   31 1
    58   30   56 1
    59   30   57 1
    60   31   32 1
    61   31   58 1
    62   31   59 1
    63   32   33 1
    64   32   60 1
    65   32   61 1
    66   33   34 1
    67   33   62 1
    68   33   63 1
    69   34   64 1
    70   34   65 1
@<TRIPOS>MOLECULE
CHEMBL184202
   61    66     0     0     0
SMALL
USER_CHARGES

@<TRIPOS>ATOM
      1 C1          1.1631   -0.6117   -0.4390 C.ar      1 <0>        -0.0872
      2 C2          2.3518    0.0921   -0.4484 C.ar      1 <0>        -0.1389
      3 C3          2.3800    1.4096   -0.0147 C.ar      1 <0>         0.1157
      4 C4          1.2137    2.0170    0.4273 C.ar      1 <0>        -0.1461
      5 C5          0.0275    1.3089    0.4346 C.ar      1 <0>        -0.0837
      6 C6          0.0021   -0.0041    0.0020 C.ar      1 <0>        -0.0896
      7 C7         -1.2934   -0.7740    0.0107 C.3       1 <0>        -0.0642
      8 H1         -2.1334   -0.0869    0.1120 H         1 <0>         0.1382
      9 C8         -1.2969   -1.7821    1.1721 C.3       1 <0>         0.1495
     10 H2         -2.1779   -2.4197    1.0986 H         1 <0>         0.0961
     11 O1         -0.1255   -2.5802    1.0967 O.3       1 <0>        -0.3050
     12 C9          0.1551   -3.3416    0.0132 C.ar      1 <0>         0.1210
     13 C10         0.9986   -4.4351    0.1946 C.ar      1 <0>        -0.1140
     14 C11         1.3394   -5.2447   -0.8692 C.ar      1 <0>        -0.1062
     15 C12         0.8443   -4.9772   -2.1372 C.ar      1 <0>         0.0986
     16 C13        -0.0005   -3.8960   -2.3286 C.ar      1 <0>        -0.0901
     17 C14        -0.3494   -3.0850   -1.2568 C.ar      1 <0>        -0.1476
     18 S1         -1.4568   -1.7323   -1.5285 S.3       1 <0>        -0.0841
     19 O2          1.1866   -5.7716   -3.1864 O.3       1 <0>        -0.4915
     20 C15        -1.3198   -1.0400    2.4835 C.ar      1 <0>        -0.1043
     21 C16        -0.1522   -0.5024    2.9927 C.ar      1 <0>        -0.0349
     22 C17        -0.1704    0.1779    4.1949 C.ar      1 <0>        -0.1422
     23 C18        -1.3617    0.3218    4.8912 C.ar      1 <0>         0.1222
     24 C19        -2.5320   -0.2182    4.3779 C.ar      1 <0>        -0.2028
     25 C20        -2.5094   -0.8931    3.1727 C.ar      1 <0>        -0.0589
     26 O3         -1.3822    0.9902    6.0743 O.3       1 <0>        -0.3245
     27 C21        -2.6441    1.0995    6.7359 C.3       1 <0>         0.0282
     28 C22        -2.4698    1.8785    8.0411 C.3       1 <0>         0.0038
     29 N1         -2.0692    3.2589    7.7377 N.4       1 <0>        -0.3976
     30 C23        -0.6794    3.2934    7.2138 C.3       1 <0>         0.0282
     31 C24        -0.2024    4.7389    7.4714 C.3       1 <0>        -0.1848
     32 C25         0.4280    5.0594    8.8281 C.3       1 <0>        -0.1135
     33 C26        -1.0779    5.2486    8.6347 C.3       1 <0>        -0.1878
     34 C27        -2.0103    4.0683    8.9821 C.3       1 <0>         0.0216
     35 O4          3.5482    2.1039   -0.0225 O.3       1 <0>        -0.4999
     36 H3          1.1398   -1.6359   -0.7807 H         1 <0>         0.1322
     37 H4          3.2585   -0.3831   -0.7926 H         1 <0>         0.1314
     38 H5          1.2331    3.0424    0.7657 H         1 <0>         0.1293
     39 H6         -0.8807    1.7813    0.7787 H         1 <0>         0.1235
     40 H7          1.3899   -4.6512    1.1778 H         1 <0>         0.1413
     41 H8          1.9942   -6.0894   -0.7144 H         1 <0>         0.1429
     42 H9         -0.3883   -3.6831   -3.3139 H         1 <0>         0.1405
     43 H10         0.5878   -6.5179   -3.3264 H         1 <0>         0.3946
     44 H11         0.7750   -0.6147    2.4504 H         1 <0>         0.1385
     45 H12         0.7420    0.5970    4.5927 H         1 <0>         0.1347
     46 H13        -3.4607   -0.1075    4.9180 H         1 <0>         0.1314
     47 H14        -3.4210   -1.3098    2.7705 H         1 <0>         0.1344
     48 H15        -3.3483    1.6246    6.0906 H         1 <0>         0.0866
     49 H16        -3.0265    0.1028    6.9560 H         1 <0>         0.1108
     50 H17        -3.4123    1.8857    8.5886 H         1 <0>         0.1512
     51 H18        -1.7003    1.4021    8.6486 H         1 <0>         0.1407
     52 H19        -0.0520    2.5841    7.7535 H         1 <0>         0.1355
     53 H20        -0.6702    3.0746    6.1460 H         1 <0>         0.1441
     54 H21         0.0178    5.3603    6.6034 H         1 <0>         0.1479
     55 H22         0.7541    4.2195    9.4416 H         1 <0>         0.1100
     56 H23         1.0424    5.9571    8.8971 H         1 <0>         0.1274
     57 H24        -1.4978    6.2545    8.6392 H         1 <0>         0.1493
     58 H25        -3.0031    4.4329    9.2457 H         1 <0>         0.1401
     59 H26        -1.5911    3.4803    9.7986 H         1 <0>         0.1358
     60 H27         3.7178    2.5792   -0.8474 H         1 <0>         0.3955
     61 H28        -2.7079    3.6745    7.0763 H         1 <0>         0.4269
@<TRIPOS>BOND
     1    1    6 ar
     2    1    2 ar
     3    1   36 1
     4    2    3 ar
     5    2   37 1
     6    3    4 ar
     7    3   35 1
     8    4    5 ar
     9    4   38 1
    10    5    6 ar
    11    5   39 1
    12    6    7 1
    13    7    8 1
    14    7   18 1
    15    7    9 1
    16    9   10 1
    17    9   11 1
    18    9   20 1
    19   11   12 1
    20   12   17 ar
    21   12   13 ar
    22   13   14 ar
    23   13   40 1
    24   14   15 ar
    25   14   41 1
    26   15   16 ar
    27   15   19 1
    28   16   17 ar
    29   16   42 1
    30   17   18 1
    31   19   43 1
    32   20   25 ar
    33   20   21 ar
    34   21   22 ar
    35   21   44 1
    36   22   23 ar
    37   22   45 1
    38   23   24 ar
    39   23   26 1
    40   24   25 ar
    41   24   46 1
    42   25   47 1
    43   26   27 1
    44   27   28 1
    45   27   48 1
    46   27   49 1
    47   28   29 1
    48   28   50 1
    49   28   51 1
    50   29   34 1
    51   29   30 1
    52   29   61 1
    53   30   31 1
    54   30   52 1
    55   30   53 1
    56   31   33 1
    57   31   32 1
    58   31   54 1
    59   32   33 1
    60   32   55 1
    61   32   56 1
    62   33   34 1
    63   33   57 1
    64   34   58 1
    65   34   59 1
    66   35   60 1
@<TRIPOS>MOLECULE
CHEMBL219126
   45    48     0     0     0
SMALL
USER_CHARGES

@<TRIPOS>ATOM
      1 C1         -0.0167    1.3781    0.0096 C.ar      1 <0>        -0.1234
      2 C2          1.1709    2.0855    0.0021 C.ar      1 <0>        -0.1183
      3 C3          2.3773    1.4107   -0.0130 C.ar      1 <0>        -0.1224
      4 C4          2.3960    0.0285   -0.0201 C.ar      1 <0>        -0.0755
      5 C5          1.2084   -0.6789   -0.0117 C.ar      1 <0>        -0.1100
      6 C6          0.0021   -0.0041    0.0020 C.ar      1 <0>        -0.1182
      7 C7          3.7112   -0.7071   -0.0376 C.3       1 <0>        -0.0307
      8 C8          4.1644   -0.9594    1.3773 C.ar      1 <0>        -0.1560
      9 C9          4.9560   -0.0216    2.0285 C.ar      1 <0>         0.1995
     10 C10         5.3829   -0.2374    3.3328 C.ar      1 <0>        -0.2156
     11 C11         5.0227   -1.3964    3.9972 C.ar      1 <0>         0.2182
     12 C12         4.2265   -2.3493    3.3430 C.ar      1 <0>        -0.2883
     13 C13         3.7864   -2.1216    2.0256 C.ar      1 <0>         0.2175
     14 O1          3.0006   -3.0239    1.3923 O.3       1 <0>        -0.2932
     15 C14         3.0115   -4.3780    1.8439 C.3       1 <0>         0.1450
     16 H1          3.9848   -4.8227    1.6366 H         1 <0>         0.0911
     17 C15         2.7439   -4.4120    3.3557 C.3       1 <0>        -0.1922
     18 C16         3.8393   -3.5924    4.0189 C.2       1 <0>         0.3990
     19 O2          4.3578   -3.9411    5.0595 O.2       1 <0>        -0.4245
     20 C17         1.9397   -5.1564    1.1253 C.ar      1 <0>        -0.1008
     21 C18         0.7472   -4.5418    0.7909 C.ar      1 <0>        -0.0750
     22 C19        -0.2371   -5.2532    0.1325 C.ar      1 <0>        -0.1450
     23 C20        -0.0280   -6.5854   -0.1935 C.ar      1 <0>         0.1166
     24 C21         1.1696   -7.1997    0.1428 C.ar      1 <0>        -0.1431
     25 C22         2.1527   -6.4824    0.7965 C.ar      1 <0>        -0.0842
     26 O3         -0.9949   -7.2876   -0.8407 O.3       1 <0>        -0.4991
     27 O4          5.4361   -1.6103    5.2709 O.3       1 <0>        -0.4757
     28 O5          5.3161    1.1166    1.3839 O.3       1 <0>        -0.4859
     29 H2         -0.9591    1.9053    0.0259 H         1 <0>         0.1204
     30 H3          1.1563    3.1654    0.0076 H         1 <0>         0.1218
     31 H4          3.3051    1.9634   -0.0196 H         1 <0>         0.1206
     32 H5          1.2231   -1.7588   -0.0176 H         1 <0>         0.1255
     33 H6         -0.9258   -0.5567    0.0082 H         1 <0>         0.1207
     34 H7          3.5884   -1.6586   -0.5549 H         1 <0>         0.0892
     35 H8          4.4573   -0.1052   -0.5563 H         1 <0>         0.0910
     36 H9          5.9963    0.5004    3.8287 H         1 <0>         0.1463
     37 H10         1.7663   -3.9801    3.5694 H         1 <0>         0.1161
     38 H11         2.7836   -5.4398    3.7166 H         1 <0>         0.1145
     39 H12         0.5849   -3.5047    1.0449 H         1 <0>         0.1331
     40 H13        -1.1687   -4.7729   -0.1279 H         1 <0>         0.1327
     41 H14         1.3347   -8.2366   -0.1099 H         1 <0>         0.1342
     42 H15         3.0869   -6.9589    1.0545 H         1 <0>         0.1315
     43 H16        -0.9319   -7.2469   -1.8048 H         1 <0>         0.3945
     44 H17         4.8290   -1.2725    5.9435 H         1 <0>         0.3999
     45 H18         4.6947    1.8482    1.5007 H         1 <0>         0.3981
@<TRIPOS>BOND
     1    1    6 ar
     2    1    2 ar
     3    1   29 1
     4    2    3 ar
     5    2   30 1
     6    3    4 ar
     7    3   31 1
     8    4    5 ar
     9    4    7 1
    10    5    6 ar
    11    5   32 1
    12    6   33 1
    13    7    8 1
    14    7   34 1
    15    7   35 1
    16    8   13 ar
    17    8    9 ar
    18    9   10 ar
    19    9   28 1
    20   10   11 ar
    21   10   36 1
    22   11   12 ar
    23   11   27 1
    24   12   18 1
    25   12   13 ar
    26   13   14 1
    27   14   15 1
    28   15   16 1
    29   15   17 1
    30   15   20 1
    31   17   18 1
    32   17   37 1
    33   17   38 1
    34   18   19 2
    35   20   25 ar
    36   20   21 ar
    37   21   22 ar
    38   21   39 1
    39   22   23 ar
    40   22   40 1
    41   23   24 ar
    42   23   26 1
    43   24   25 ar
    44   24   41 1
    45   25   42 1
    46   26   43 1
    47   27   44 1
    48   28   45 1
@<TRIPOS>MOLECULE
CHEMBL83451
   61    65     0     0     0
SMALL
USER_CHARGES

@<TRIPOS>ATOM
      1 C1         -0.2361    0.4832    1.0266 C.ar      1 <0>        -0.0572
      2 C2          0.9276    1.1907    1.2579 C.ar      1 <0>        -0.1407
      3 C3          2.1552    0.5490    1.1807 C.ar      1 <0>         0.1259
      4 C4          2.2107   -0.8022    0.8712 C.ar      1 <0>        -0.2029
      5 C5          1.0441   -1.5053    0.6408 C.ar      1 <0>        -0.0365
      6 C6         -0.1781   -0.8635    0.7184 C.ar      1 <0>        -0.1069
      7 C7         -1.4492   -1.6330    0.4670 C.3       1 <0>         0.1508
      8 H1         -2.2921   -1.0972    0.9035 H         1 <0>         0.1001
      9 C8         -1.6663   -1.7867   -1.0477 C.3       1 <0>        -0.0722
     10 H2         -1.6461   -0.8082   -1.5275 H         1 <0>         0.1435
     11 S1         -3.3003   -2.5565   -1.2752 S.3       1 <0>        -0.0727
     12 C9         -3.3054   -3.8216   -0.0422 C.ar      1 <0>        -0.1499
     13 C10        -4.2815   -4.8080   -0.0923 C.ar      1 <0>        -0.0887
     14 C11        -4.3119   -5.8063    0.8678 C.ar      1 <0>         0.1005
     15 C12        -3.3638   -5.8132    1.8804 C.ar      1 <0>        -0.1061
     16 C13        -2.3919   -4.8353    1.9287 C.ar      1 <0>        -0.1135
     17 C14        -2.3473   -3.8303    0.9653 C.ar      1 <0>         0.1189
     18 O1         -1.3488   -2.9206    1.0558 O.3       1 <0>        -0.3064
     19 O2         -5.2661   -6.7738    0.8181 O.3       1 <0>        -0.4914
     20 C15        -0.5943   -2.6688   -1.6339 C.ar      1 <0>        -0.0317
     21 C16        -0.6098   -4.0394   -1.4246 C.ar      1 <0>        -0.1590
     22 C17         0.3901   -4.8165   -1.9779 C.ar      1 <0>         0.1054
     23 N1          1.3504   -4.2687   -2.6967 N.ar      1 <0>        -0.4775
     24 C18         1.3969   -2.9692   -2.9164 C.ar      1 <0>         0.1002
     25 C19         0.4278   -2.1299   -2.4002 C.ar      1 <0>        -0.1561
     26 O3          3.3014    1.2430    1.4073 O.3       1 <0>        -0.3267
     27 C20         4.5288    0.5177    1.3107 C.3       1 <0>         0.0250
     28 C21         5.7011    1.4586    1.5959 C.3       1 <0>        -0.0008
     29 N2          5.6144    1.9434    2.9799 N.4       1 <0>        -0.3841
     30 C22         6.6446    2.9645    3.2046 C.3       1 <0>        -0.0071
     31 C23         6.5069    3.5308    4.6195 C.3       1 <0>        -0.1466
     32 C24         6.6784    2.3981    5.6357 C.3       1 <0>        -0.1391
     33 C25         5.6465    1.3044    5.3453 C.3       1 <0>        -0.1453
     34 C26         5.8162    0.8206    3.9036 C.3       1 <0>        -0.0134
     35 H3         -1.1922    0.9812    1.0910 H         1 <0>         0.1406
     36 H4          0.8818    2.2427    1.4982 H         1 <0>         0.1385
     37 H5          3.1651   -1.3039    0.8102 H         1 <0>         0.1295
     38 H6          1.0868   -2.5572    0.3999 H         1 <0>         0.1310
     39 H7         -5.0185   -4.7971   -0.8817 H         1 <0>         0.1412
     40 H8         -3.3864   -6.5871    2.6335 H         1 <0>         0.1433
     41 H9         -1.6585   -4.8490    2.7214 H         1 <0>         0.1407
     42 H10        -5.0113   -7.5515    0.3029 H         1 <0>         0.3955
     43 H11        -1.3932   -4.4938   -0.8362 H         1 <0>         0.1383
     44 H12         0.3852   -5.8848   -1.8196 H         1 <0>         0.1577
     45 H13         2.1993   -2.5566   -3.5100 H         1 <0>         0.1568
     46 H14         0.4686   -1.0671   -2.5877 H         1 <0>         0.1333
     47 H15         4.5293   -0.2941    2.0381 H         1 <0>         0.0870
     48 H16         4.6295    0.1059    0.3066 H         1 <0>         0.1104
     49 H17         6.6397    0.9222    1.4570 H         1 <0>         0.1495
     50 H18         5.6619    2.3058    0.9111 H         1 <0>         0.1430
     51 H19         7.6313    2.5163    3.0876 H         1 <0>         0.1293
     52 H20         6.5232    3.7683    2.4786 H         1 <0>         0.1312
     53 H21         7.2738    4.2874    4.7849 H         1 <0>         0.1133
     54 H22         5.5206    3.9794    4.7375 H         1 <0>         0.0880
     55 H23         7.6828    1.9828    5.5527 H         1 <0>         0.0822
     56 H24         6.5251    2.7857    6.6429 H         1 <0>         0.0949
     57 H25         5.7985    0.4697    6.0296 H         1 <0>         0.1124
     58 H26         4.6423    1.7068    5.4785 H         1 <0>         0.0879
     59 H27         5.0831    0.0417    3.6936 H         1 <0>         0.1270
     60 H28         6.8205    0.4181    3.7717 H         1 <0>         0.1305
     61 H29         4.7033    2.3474    3.1373 H         1 <0>         0.4292
@<TRIPOS>BOND
     1    1    6 ar
     2    1    2 ar
     3    1   35 1
     4    2    3 ar
     5    2   36 1
     6    3    4 ar
     7    3   26 1
     8    4    5 ar
     9    4   37 1
    10    5    6 ar
    11    5   38 1
    12    6    7 1
    13    7    8 1
    14    7   18 1
    15    7    9 1
    16    9   10 1
    17    9   11 1
    18    9   20 1
    19   11   12 1
    20   12   17 ar
    21   12   13 ar
    22   13   14 ar
    23   13   39 1
    24   14   15 ar
    25   14   19 1
    26   15   16 ar
    27   15   40 1
    28   16   17 ar
    29   16   41 1
    30   17   18 1
    31   19   42 1
    32   20   25 ar
    33   20   21 ar
    34   21   22 ar
    35   21   43 1
    36   22   23 ar
    37   22   44 1
    38   23   24 ar
    39   24   25 ar
    40   24   45 1
    41   25   46 1
    42   26   27 1
    43   27   28 1
    44   27   47 1
    45   27   48 1
    46   28   29 1
    47   28   49 1
    48   28   50 1
    49   29   34 1
    50   29   30 1
    51   29   61 1
    52   30   31 1
    53   30   51 1
    54   30   52 1
    55   31   32 1
    56   31   53 1
    57   31   54 1
    58   32   33 1
    59   32   55 1
    60   32   56 1
    61   33   34 1
    62   33   57 1
    63   33   58 1
    64   34   59 1
    65   34   60 1
@<TRIPOS>MOLECULE
CHEMBL92900
   69    74     0     0     0
SMALL
USER_CHARGES

@<TRIPOS>ATOM
      1 C1          0.5923    1.1496   -0.3739 C.ar      1 <0>        -0.0429
      2 C2          1.8509    1.6794   -0.1649 C.ar      1 <0>        -0.1383
      3 C3          2.7768    0.9841    0.5992 C.ar      1 <0>         0.1539
      4 C4          2.4360   -0.2420    1.1517 C.ar      1 <0>        -0.2018
      5 C5          1.1761   -0.7675    0.9397 C.ar      1 <0>        -0.0512
      6 C6          0.2551   -0.0726    0.1778 C.ar      1 <0>        -0.1764
      7 C7         -1.1188   -0.6480   -0.0514 C.3       1 <0>         0.1373
      8 C8         -1.6368   -1.2259    1.2394 C.ar      1 <0>        -0.1392
      9 C9         -1.4133   -0.5246    2.4155 C.ar      1 <0>        -0.0655
     10 C10        -1.8721   -1.0160    3.6198 C.ar      1 <0>        -0.1381
     11 C11        -2.5625   -2.2190    3.6566 C.ar      1 <0>         0.1464
     12 C12        -2.7850   -2.9192    2.4819 C.ar      1 <0>        -0.1345
     13 C13        -2.3206   -2.4231    1.2747 C.ar      1 <0>        -0.0659
     14 C14        -2.5762   -3.2195    0.0205 C.3       1 <0>        -0.1149
     15 C15        -2.3552   -2.3358   -1.2078 C.3       1 <0>        -0.0060
     16 N1         -1.0426   -1.6833   -1.0861 N.4       1 <0>        -0.3767
     17 C16        -0.0311   -2.6802   -0.7106 C.3       1 <0>         0.0280
     18 C17         0.1824   -3.6354   -1.8564 C.ar      1 <0>        -0.1516
     19 C18        -0.4922   -4.8419   -1.8835 C.ar      1 <0>        -0.0830
     20 C19        -0.3001   -5.7213   -2.9326 C.ar      1 <0>        -0.0967
     21 C20         0.5702   -5.3952   -3.9601 C.ar      1 <0>         0.0742
     22 C21         1.2498   -4.1799   -3.9328 C.ar      1 <0>         0.0420
     23 C22         1.0480   -3.3010   -2.8810 C.ar      1 <0>        -0.0841
     24 O1          2.0375   -4.0956   -5.0445 O.3       1 <0>        -0.3017
     25 C23         2.1444   -5.4422   -5.5430 C.3       1 <0>         0.2112
     26 O2          0.9320   -6.0722   -5.0888 O.3       1 <0>        -0.2959
     27 O3         -3.0182   -2.7086    4.8396 O.3       1 <0>        -0.4942
     28 O4          4.0157    1.5030    0.8059 O.3       1 <0>        -0.3211
     29 C24         4.9172    0.7321    1.6028 C.3       1 <0>         0.0249
     30 C25         6.2512    1.4716    1.7235 C.3       1 <0>         0.0024
     31 N2          6.0514    2.7242    2.4644 N.4       1 <0>        -0.3965
     32 C26         5.7302    2.4332    3.8851 C.3       1 <0>        -0.0109
     33 C27         6.1056    3.7500    4.6103 C.3       1 <0>        -0.1448
     34 C28         7.3740    4.2106    3.8560 C.3       1 <0>        -0.1460
     35 C29         7.3048    3.5089    2.4869 C.3       1 <0>        -0.0090
     36 H1         -0.1304    1.6926   -0.9649 H         1 <0>         0.1471
     37 H2          2.1139    2.6339   -0.5963 H         1 <0>         0.1469
     38 H3          3.1551   -0.7854    1.7466 H         1 <0>         0.1401
     39 H4          0.9103   -1.7220    1.3696 H         1 <0>         0.1400
     40 H5         -1.7892    0.1443   -0.3845 H         1 <0>         0.1528
     41 H6         -0.8763    0.4121    2.3879 H         1 <0>         0.1349
     42 H7         -1.6947   -0.4656    4.5320 H         1 <0>         0.1416
     43 H8         -3.3221   -3.8559    2.5075 H         1 <0>         0.1441
     44 H9         -1.8927   -4.0678   -0.0157 H         1 <0>         0.1075
     45 H10        -3.6037   -3.5831    0.0252 H         1 <0>         0.1292
     46 H11        -2.3768   -2.9492   -2.1086 H         1 <0>         0.1409
     47 H12        -3.1372   -1.5782   -1.2591 H         1 <0>         0.1387
     48 H13         0.9070   -2.1761   -0.4782 H         1 <0>         0.1421
     49 H14        -0.3730   -3.2329    0.1644 H         1 <0>         0.1438
     50 H15        -1.1705   -5.0980   -1.0830 H         1 <0>         0.1472
     51 H16        -0.8285   -6.6630   -2.9512 H         1 <0>         0.1520
     52 H17         1.5703   -2.3559   -2.8596 H         1 <0>         0.1398
     53 H18         2.1927   -5.4447   -6.6319 H         1 <0>         0.1460
     54 H19         3.0166   -5.9395   -5.1187 H         1 <0>         0.0977
     55 H20        -3.9113   -2.4168    5.0682 H         1 <0>         0.4075
     56 H21         4.4913    0.5866    2.5955 H         1 <0>         0.0904
     57 H22         5.0805   -0.2373    1.1318 H         1 <0>         0.1122
     58 H23         6.9671    0.8450    2.2554 H         1 <0>         0.1529
     59 H24         6.6339    1.6955    0.7277 H         1 <0>         0.1437
     60 H25         4.6682    2.2183    4.0032 H         1 <0>         0.1311
     61 H26         6.3349    1.6049    4.2544 H         1 <0>         0.1362
     62 H27         5.3083    4.4864    4.5098 H         1 <0>         0.0987
     63 H28         6.3283    3.5620    5.6606 H         1 <0>         0.1193
     64 H29         7.3655    5.2929    3.7272 H         1 <0>         0.1078
     65 H30         8.2687    3.9000    4.3955 H         1 <0>         0.1066
     66 H31         8.1608    2.8450    2.3663 H         1 <0>         0.1331
     67 H32         7.2923    4.2517    1.6892 H         1 <0>         0.1346
     68 H33         5.3105    3.2639    2.0427 H         1 <0>         0.4318
     69 H34        -0.7920   -1.2616   -1.9679 H         1 <0>         0.4283
@<TRIPOS>BOND
     1    1    6 ar
     2    1    2 ar
     3    1   36 1
     4    2    3 ar
     5    2   37 1
     6    3    4 ar
     7    3   28 1
     8    4    5 ar
     9    4   38 1
    10    5    6 ar
    11    5   39 1
    12    6    7 1
    13    7   16 1
    14    7    8 1
    15    7   40 1
    16    8   13 ar
    17    8    9 ar
    18    9   10 ar
    19    9   41 1
    20   10   11 ar
    21   10   42 1
    22   11   12 ar
    23   11   27 1
    24   12   13 ar
    25   12   43 1
    26   13   14 1
    27   14   15 1
    28   14   44 1
    29   14   45 1
    30   15   16 1
    31   15   46 1
    32   15   47 1
    33   16   17 1
    34   16   69 1
    35   17   18 1
    36   17   48 1
    37   17   49 1
    38   18   23 ar
    39   18   19 ar
    40   19   20 ar
    41   19   50 1
    42   20   21 ar
    43   20   51 1
    44   21   26 1
    45   21   22 ar
    46   22   23 ar
    47   22   24 1
    48   23   52 1
    49   24   25 1
    50   25   26 1
    51   25   53 1
    52   25   54 1
    53   27   55 1
    54   28   29 1
    55   29   30 1
    56   29   56 1
    57   29   57 1
    58   30   31 1
    59   30   58 1
    60   30   59 1
    61   31   35 1
    62   31   32 1
    63   31   68 1
    64   32   33 1
    65   32   60 1
    66   32   61 1
    67   33   34 1
    68   33   62 1
    69   33   63 1
    70   34   35 1
    71   34   64 1
    72   34   65 1
    73   35   66 1
    74   35   67 1
@<TRIPOS>MOLECULE
CHEMBL92900__1
   68    73     0     0     0
SMALL
USER_CHARGES

@<TRIPOS>ATOM
      1 C1          1.0183   -0.6140    0.8561 C.ar      1 <0>        -0.0631
      2 C2          2.1982    0.0976    0.9550 C.ar      1 <0>        -0.1428
      3 C3          2.2966    1.3582    0.3843 C.ar      1 <0>         0.1168
      4 C4          1.2091    1.9010   -0.2846 C.ar      1 <0>        -0.2021
      5 C5          0.0313    1.1854   -0.3807 C.ar      1 <0>        -0.0570
      6 C6         -0.0641   -0.0708    0.1891 C.ar      1 <0>        -0.0946
      7 C7         -1.3500   -0.8494    0.0823 C.3       1 <0>         0.1666
      8 C8         -1.6450   -1.5071    1.4051 C.ar      1 <0>        -0.1266
      9 C9         -1.4356   -0.7762    2.5660 C.ar      1 <0>        -0.0862
     10 C10        -1.6953   -1.3345    3.8000 C.ar      1 <0>        -0.1476
     11 C11        -2.1699   -2.6358    3.8823 C.ar      1 <0>         0.1158
     12 C12        -2.3772   -3.3655    2.7232 C.ar      1 <0>        -0.1441
     13 C13        -2.1127   -2.8017    1.4850 C.ar      1 <0>        -0.0542
     14 C14        -2.3422   -3.6375    0.2519 C.3       1 <0>        -0.1271
     15 C15        -2.3974   -2.7398   -0.9845 C.3       1 <0>         0.0487
     16 N1         -1.2198   -1.8575   -0.9744 N.3       1 <0>        -0.5083
     17 C16         0.0175   -2.6328   -0.8129 C.3       1 <0>         0.0774
     18 C17         0.2423   -3.4811   -2.0380 C.ar      1 <0>        -0.0677
     19 C18        -0.2835   -4.7583   -2.0986 C.ar      1 <0>        -0.1068
     20 C19        -0.0804   -5.5401   -3.2204 C.ar      1 <0>        -0.0968
     21 C20         0.6518   -5.0449   -4.2873 C.ar      1 <0>         0.0346
     22 C21         1.1815   -3.7584   -4.2263 C.ar      1 <0>         0.0311
     23 C22         0.9690   -2.9784   -3.1011 C.ar      1 <0>        -0.0798
     24 O1          1.8533   -3.5077   -5.3877 O.3       1 <0>        -0.3106
     25 C23         2.0760   -4.7969   -5.9891 C.3       1 <0>         0.2133
     26 O2          0.9916   -5.6002   -5.4871 O.3       1 <0>        -0.3070
     27 O3         -2.4297   -3.1922    5.0946 O.3       1 <0>        -0.4992
     28 O4          3.4561    2.0604    0.4806 O.3       1 <0>        -0.3286
     29 C24         3.4853    3.3517   -0.1309 C.3       1 <0>         0.0273
     30 C25         4.8621    3.9849    0.0801 C.3       1 <0>         0.0037
     31 N2          5.8779    3.1958   -0.6295 N.4       1 <0>        -0.3957
     32 C26         5.6979    3.3309   -2.0977 C.3       1 <0>        -0.0104
     33 C27         7.0914    2.9558   -2.6616 C.3       1 <0>        -0.1448
     34 C28         8.0604    3.5697   -1.6253 C.3       1 <0>        -0.1451
     35 C29         7.2285    3.7236   -0.3386 C.3       1 <0>        -0.0087
     36 H1          0.9427   -1.5973    1.2964 H         1 <0>         0.1336
     37 H2          3.0433   -0.3270    1.4765 H         1 <0>         0.1328
     38 H3          1.2830    2.8824   -0.7294 H         1 <0>         0.1279
     39 H4         -0.8155    1.6075   -0.9013 H         1 <0>         0.1337
     40 H5         -2.1637   -0.1686   -0.1676 H         1 <0>         0.1072
     41 H6         -1.0664    0.2368    2.5027 H         1 <0>         0.1248
     42 H7         -1.5295   -0.7607    4.6998 H         1 <0>         0.1293
     43 H8         -2.7464   -4.3786    2.7846 H         1 <0>         0.1304
     44 H9         -1.5275   -4.3535    0.1432 H         1 <0>         0.0860
     45 H10        -3.2847   -4.1763    0.3502 H         1 <0>         0.0888
     46 H11        -2.3865   -3.3549   -1.8843 H         1 <0>         0.0926
     47 H12        -3.3059   -2.1381   -0.9599 H         1 <0>         0.0845
     48 H13         0.8586   -1.9518   -0.6832 H         1 <0>         0.0945
     49 H14        -0.0682   -3.2754    0.0633 H         1 <0>         0.0584
     50 H15        -0.8539   -5.1461   -1.2675 H         1 <0>         0.1368
     51 H16        -0.4923   -6.5374   -3.2650 H         1 <0>         0.1379
     52 H17         1.3748   -1.9787   -3.0529 H         1 <0>         0.1304
     53 H18         2.0289   -4.7259   -7.0757 H         1 <0>         0.1338
     54 H19         3.0350   -5.2068   -5.6722 H         1 <0>         0.0854
     55 H20        -3.3348   -3.0531    5.4053 H         1 <0>         0.3951
     56 H21         3.2908    3.2525   -1.1988 H         1 <0>         0.0857
     57 H22         2.7212    3.9847    0.3203 H         1 <0>         0.1083
     58 H23         4.8568    5.0035   -0.3079 H         1 <0>         0.1485
     59 H24         5.0944    4.0028    1.1449 H         1 <0>         0.1411
     60 H25         4.9378    2.6374   -2.4575 H         1 <0>         0.1336
     61 H26         5.4397    4.3566   -2.3609 H         1 <0>         0.1349
     62 H27         7.2105    1.8733   -2.7071 H         1 <0>         0.0983
     63 H28         7.2431    3.4031   -3.6440 H         1 <0>         0.1174
     64 H29         8.9036    2.9007   -1.4530 H         1 <0>         0.1056
     65 H30         8.4125    4.5431   -1.9669 H         1 <0>         0.1044
     66 H31         7.1643    4.7758   -0.0615 H         1 <0>         0.1314
     67 H32         7.6848    3.1514    0.4692 H         1 <0>         0.1328
     68 H33         5.8175    2.2258   -0.3584 H         1 <0>         0.4336
@<TRIPOS>BOND
     1    1    6 ar
     2    1    2 ar
     3    1   36 1
     4    2    3 ar
     5    2   37 1
     6    3    4 ar
     7    3   28 1
     8    4    5 ar
     9    4   38 1
    10    5    6 ar
    11    5   39 1
    12    6    7 1
    13    7   16 1
    14    7    8 1
    15    7   40 1
    16    8   13 ar
    17    8    9 ar
    18    9   10 ar
    19    9   41 1
    20   10   11 ar
    21   10   42 1
    22   11   12 ar
    23   11   27 1
    24   12   13 ar
    25   12   43 1
    26   13   14 1
    27   14   15 1
    28   14   44 1
    29   14   45 1
    30   15   16 1
    31   15   46 1
    32   15   47 1
    33   16   17 1
    34   17   18 1
    35   17   48 1
    36   17   49 1
    37   18   23 ar
    38   18   19 ar
    39   19   20 ar
    40   19   50 1
    41   20   21 ar
    42   20   51 1
    43   21   26 1
    44   21   22 ar
    45   22   23 ar
    46   22   24 1
    47   23   52 1
    48   24   25 1
    49   25   26 1
    50   25   53 1
    51   25   54 1
    52   27   55 1
    53   28   29 1
    54   29   30 1
    55   29   56 1
    56   29   57 1
    57   30   31 1
    58   30   58 1
    59   30   59 1
    60   31   35 1
    61   31   32 1
    62   31   68 1
    63   32   33 1
    64   32   60 1
    65   32   61 1
    66   33   34 1
    67   33   62 1
    68   33   63 1
    69   34   35 1
    70   34   64 1
    71   34   65 1
    72   35   66 1
    73   35   67 1
@<TRIPOS>MOLECULE
CHEMBL92900__2
   69    74     0     0     0
SMALL
USER_CHARGES

@<TRIPOS>ATOM
      1 C1         -0.0167    1.3784    0.0096 C.ar      1 <0>        -0.0468
      2 C2          1.1695    2.0865    0.0021 C.ar      1 <0>        -0.1290
      3 C3          2.3802    1.4093   -0.0131 C.ar      1 <0>         0.1455
      4 C4          2.3963    0.0221   -0.0206 C.ar      1 <0>        -0.1907
      5 C5          1.2074   -0.6814   -0.0130 C.ar      1 <0>        -0.0719
      6 C6          0.0021   -0.0041    0.0020 C.ar      1 <0>        -0.1575
      7 C7         -1.2934   -0.7740    0.0107 C.3       1 <0>         0.1397
      8 C8         -1.6219   -1.2090   -1.3933 C.ar      1 <0>        -0.1418
      9 C9         -1.4037   -0.3148   -2.4316 C.ar      1 <0>        -0.0655
     10 C10        -1.6934   -0.6705   -3.7323 C.ar      1 <0>        -0.1375
     11 C11        -2.2066   -1.9304   -4.0056 C.ar      1 <0>         0.1467
     12 C12        -2.4230   -2.8234   -2.9686 C.ar      1 <0>        -0.1354
     13 C13        -2.1294   -2.4625   -1.6637 C.ar      1 <0>        -0.0650
     14 C14        -2.3725   -3.4657   -0.5651 C.3       1 <0>        -0.1069
     15 C15        -2.3743   -2.7584    0.7907 C.3       1 <0>        -0.0125
     16 N1         -1.1585   -1.9368    0.8926 N.4       1 <0>        -0.3821
     17 C16        -0.9856   -1.4845    2.2795 C.3       1 <0>         0.0493
     18 C17        -0.7246   -2.6742    3.1670 C.ar      1 <0>        -0.1564
     19 C18        -1.7832   -3.3419    3.7545 C.ar      1 <0>        -0.0810
     20 C19        -1.5489   -4.4340    4.5689 C.ar      1 <0>        -0.0970
     21 C20        -0.2514   -4.8619    4.7988 C.ar      1 <0>         0.0760
     22 C21         0.8149   -4.1893    4.2071 C.ar      1 <0>         0.0395
     23 C22         0.5723   -3.0990    3.3873 C.ar      1 <0>        -0.0814
     24 O1          1.9775   -4.7971    4.5843 O.3       1 <0>        -0.3032
     25 C23         1.6391   -5.5933    5.7353 C.3       1 <0>         0.2113
     26 O2          0.2431   -5.8912    5.5467 O.3       1 <0>        -0.2953
     27 O3         -2.4960   -2.2867   -5.2847 O.3       1 <0>        -0.4918
     28 O4          3.5484    2.1036   -0.0209 O.3       1 <0>        -0.3210
     29 C24         4.7565    1.3405   -0.0365 C.3       1 <0>         0.0255
     30 C25         5.9580    2.2878   -0.0434 C.3       1 <0>         0.0022
     31 N2          5.9923    3.0443    1.2153 N.4       1 <0>        -0.3964
     32 C26         6.3189    2.1401    2.3476 C.3       1 <0>        -0.0105
     33 C27         6.8622    3.1078    3.4287 C.3       1 <0>        -0.1448
     34 C28         7.6591    4.1407    2.5992 C.3       1 <0>        -0.1460
     35 C29         7.0764    4.0497    1.1767 C.3       1 <0>        -0.0091
     36 H1         -0.9594    1.9052    0.0259 H         1 <0>         0.1491
     37 H2          1.1543    3.1664    0.0076 H         1 <0>         0.1479
     38 H3          3.3375   -0.5074   -0.0328 H         1 <0>         0.1393
     39 H4          1.2194   -1.7613   -0.0189 H         1 <0>         0.1253
     40 H5         -2.0910   -0.1311    0.3831 H         1 <0>         0.1530
     41 H6         -1.0047    0.6662   -2.2198 H         1 <0>         0.1346
     42 H7         -1.5217    0.0301   -4.5362 H         1 <0>         0.1429
     43 H8         -2.8229   -3.8045   -3.1784 H         1 <0>         0.1437
     44 H9         -3.3365   -3.9494   -0.7227 H         1 <0>         0.1293
     45 H10        -1.5838   -4.2180   -0.5803 H         1 <0>         0.1050
     46 H11        -3.2547   -2.1206    0.8695 H         1 <0>         0.1389
     47 H12        -2.3832   -3.4994    1.5900 H         1 <0>         0.1431
     48 H13        -0.1411   -0.7976    2.3351 H         1 <0>         0.1372
     49 H14        -1.8905   -0.9754    2.6111 H         1 <0>         0.1446
     50 H15        -2.7952   -3.0093    3.5770 H         1 <0>         0.1503
     51 H16        -2.3777   -4.9537    5.0265 H         1 <0>         0.1531
     52 H17         1.3970   -2.5783    2.9236 H         1 <0>         0.1387
     53 H18         2.2276   -6.5106    5.7529 H         1 <0>         0.1459
     54 H19         1.7886   -5.0235    6.6525 H         1 <0>         0.0982
     55 H20        -1.7594   -2.7026   -5.7534 H         1 <0>         0.4049
     56 H21         4.7979    0.7076    0.8500 H         1 <0>         0.0890
     57 H22         4.7806    0.7165   -0.9299 H         1 <0>         0.1122
     58 H23         6.8762    1.7093   -0.1448 H         1 <0>         0.1528
     59 H24         5.8702    2.9798   -0.8810 H         1 <0>         0.1442
     60 H25         5.4236    1.6298    2.7029 H         1 <0>         0.1303
     61 H26         7.0836    1.4199    2.0566 H         1 <0>         0.1359
     62 H27         6.0428    3.5904    3.9613 H         1 <0>         0.0985
     63 H28         7.5180    2.5819    4.1227 H         1 <0>         0.1189
     64 H29         7.5152    5.1427    3.0036 H         1 <0>         0.1079
     65 H30         8.7183    3.8835    2.5913 H         1 <0>         0.1067
     66 H31         7.8509    3.7340    0.4777 H         1 <0>         0.1334
     67 H32         6.6745    5.0177    0.8774 H         1 <0>         0.1350
     68 H33         5.1043    3.4961    1.3746 H         1 <0>         0.4318
     69 H34        -0.3577   -2.4826    0.6117 H         1 <0>         0.4193
@<TRIPOS>BOND
     1    1    6 ar
     2    1    2 ar
     3    1   36 1
     4    2    3 ar
     5    2   37 1
     6    3    4 ar
     7    3   28 1
     8    4    5 ar
     9    4   38 1
    10    5    6 ar
    11    5   39 1
    12    6    7 1
    13    7   16 1
    14    7    8 1
    15    7   40 1
    16    8   13 ar
    17    8    9 ar
    18    9   10 ar
    19    9   41 1
    20   10   11 ar
    21   10   42 1
    22   11   12 ar
    23   11   27 1
    24   12   13 ar
    25   12   43 1
    26   13   14 1
    27   14   15 1
    28   14   44 1
    29   14   45 1
    30   15   16 1
    31   15   46 1
    32   15   47 1
    33   16   17 1
    34   16   69 1
    35   17   18 1
    36   17   48 1
    37   17   49 1
    38   18   23 ar
    39   18   19 ar
    40   19   20 ar
    41   19   50 1
    42   20   21 ar
    43   20   51 1
    44   21   26 1
    45   21   22 ar
    46   22   23 ar
    47   22   24 1
    48   23   52 1
    49   24   25 1
    50   25   26 1
    51   25   53 1
    52   25   54 1
    53   27   55 1
    54   28   29 1
    55   29   30 1
    56   29   56 1
    57   29   57 1
    58   30   31 1
    59   30   58 1
    60   30   59 1
    61   31   35 1
    62   31   32 1
    63   31   68 1
    64   32   33 1
    65   32   60 1
    66   32   61 1
    67   33   34 1
    68   33   62 1
    69   33   63 1
    70   34   35 1
    71   34   64 1
    72   34   65 1
    73   35   66 1
    74   35   67 1
@<TRIPOS>MOLECULE
CHEMBL92900__3
   68    73     0     0     0
SMALL
USER_CHARGES

@<TRIPOS>ATOM
      1 C1         -0.0167    1.3784    0.0096 C.ar      1 <0>        -0.0752
      2 C2          1.1695    2.0865    0.0021 C.ar      1 <0>        -0.1412
      3 C3          2.3802    1.4093   -0.0131 C.ar      1 <0>         0.1135
      4 C4          2.3963    0.0221   -0.0206 C.ar      1 <0>        -0.2045
      5 C5          1.2074   -0.6814   -0.0130 C.ar      1 <0>        -0.0434
      6 C6          0.0021   -0.0041    0.0020 C.ar      1 <0>        -0.0949
      7 C7         -1.2934   -0.7740    0.0107 C.3       1 <0>         0.1699
      8 C8         -1.6221   -1.2112   -1.3929 C.ar      1 <0>        -0.0867
      9 C9         -1.4225   -0.3090   -2.4283 C.ar      1 <0>        -0.0917
     10 C10        -1.7127   -0.6625   -3.7293 C.ar      1 <0>        -0.1489
     11 C11        -2.2085   -1.9286   -4.0058 C.ar      1 <0>         0.1140
     12 C12        -2.4061   -2.8294   -2.9721 C.ar      1 <0>        -0.1469
     13 C13        -2.1108   -2.4712   -1.6662 C.ar      1 <0>        -0.0440
     14 C14        -2.3310   -3.4881   -0.5757 C.3       1 <0>        -0.0783
     15 C15        -2.3503   -2.7960    0.7874 C.3       1 <0>         0.0447
     16 N1         -1.1596   -1.9377    0.8927 N.3       1 <0>        -0.5204
     17 C16        -0.9323   -1.5211    2.2830 C.3       1 <0>         0.0965
     18 C17        -0.5574   -2.7222    3.1123 C.ar      1 <0>        -0.0700
     19 C18        -1.5431   -3.4663    3.7337 C.ar      1 <0>        -0.1027
     20 C19        -1.2043   -4.5692    4.4951 C.ar      1 <0>        -0.0969
     21 C20         0.1254   -4.9313    4.6376 C.ar      1 <0>         0.0360
     22 C21         1.1184   -4.1818    4.0117 C.ar      1 <0>         0.0303
     23 C22         0.7710   -3.0810    3.2455 C.ar      1 <0>        -0.0794
     24 O1          2.3316   -4.7357    4.3024 O.3       1 <0>        -0.3110
     25 C23         2.1029   -5.5859    5.4418 C.3       1 <0>         0.2134
     26 O2          0.7164   -5.9549    5.3203 O.3       1 <0>        -0.3066
     27 O3         -2.4994   -2.2833   -5.2851 O.3       1 <0>        -0.4983
     28 O4          3.5484    2.1036   -0.0209 O.3       1 <0>        -0.3292
     29 C24         4.7565    1.3405   -0.0365 C.3       1 <0>         0.0277
     30 C25         5.9580    2.2878   -0.0434 C.3       1 <0>         0.0037
     31 N2          5.9923    3.0443    1.2153 N.4       1 <0>        -0.3955
     32 C26         6.3189    2.1401    2.3476 C.3       1 <0>        -0.0104
     33 C27         6.8622    3.1078    3.4287 C.3       1 <0>        -0.1447
     34 C28         7.6591    4.1407    2.5992 C.3       1 <0>        -0.1450
     35 C29         7.0764    4.0497    1.1767 C.3       1 <0>        -0.0087
     36 H1         -0.9594    1.9052    0.0259 H         1 <0>         0.1345
     37 H2          1.1543    3.1664    0.0076 H         1 <0>         0.1325
     38 H3          3.3375   -0.5074   -0.0328 H         1 <0>         0.1260
     39 H4          1.2194   -1.7613   -0.0189 H         1 <0>         0.1394
     40 H5         -2.0920   -0.1312    0.3810 H         1 <0>         0.0658
     41 H6         -1.0374    0.6770   -2.2136 H         1 <0>         0.1240
     42 H7         -1.5550    0.0442   -4.5306 H         1 <0>         0.1289
     43 H8         -2.7924   -3.8153   -3.1848 H         1 <0>         0.1305
     44 H9         -3.2832   -3.9930   -0.7386 H         1 <0>         0.0840
     45 H10        -1.5256   -4.2222   -0.5975 H         1 <0>         0.0877
     46 H11        -3.2497   -2.1868    0.8761 H         1 <0>         0.0457
     47 H12        -2.3326   -3.5453    1.5788 H         1 <0>         0.0928
     48 H13        -0.1241   -0.7904    2.3158 H         1 <0>         0.0872
     49 H14        -1.8428   -1.0740    2.6818 H         1 <0>         0.0531
     50 H15        -2.5801   -3.1850    3.6243 H         1 <0>         0.1376
     51 H16        -1.9764   -5.1486    4.9793 H         1 <0>         0.1385
     52 H17         1.5386   -2.5006    2.7553 H         1 <0>         0.1302
     53 H18         2.7399   -6.4692    5.3945 H         1 <0>         0.1339
     54 H19         2.2738   -5.0384    6.3687 H         1 <0>         0.0858
     55 H20        -1.7592   -2.6859   -5.7596 H         1 <0>         0.3929
     56 H21         4.7979    0.7076    0.8500 H         1 <0>         0.0852
     57 H22         4.7806    0.7165   -0.9299 H         1 <0>         0.1080
     58 H23         6.8762    1.7093   -0.1448 H         1 <0>         0.1482
     59 H24         5.8702    2.9798   -0.8810 H         1 <0>         0.1411
     60 H25         5.4236    1.6298    2.7029 H         1 <0>         0.1334
     61 H26         7.0836    1.4199    2.0566 H         1 <0>         0.1348
     62 H27         6.0428    3.5904    3.9613 H         1 <0>         0.0983
     63 H28         7.5180    2.5819    4.1227 H         1 <0>         0.1172
     64 H29         7.5152    5.1427    3.0036 H         1 <0>         0.1056
     65 H30         8.7183    3.8835    2.5913 H         1 <0>         0.1044
     66 H31         7.8509    3.7340    0.4777 H         1 <0>         0.1313
     67 H32         6.6745    5.0177    0.8774 H         1 <0>         0.1329
     68 H33         5.1043    3.4961    1.3746 H         1 <0>         0.4335
@<TRIPOS>BOND
     1    1    6 ar
     2    1    2 ar
     3    1   36 1
     4    2    3 ar
     5    2   37 1
     6    3    4 ar
     7    3   28 1
     8    4    5 ar
     9    4   38 1
    10    5    6 ar
    11    5   39 1
    12    6    7 1
    13    7   16 1
    14    7    8 1
    15    7   40 1
    16    8   13 ar
    17    8    9 ar
    18    9   10 ar
    19    9   41 1
    20   10   11 ar
    21   10   42 1
    22   11   12 ar
    23   11   27 1
    24   12   13 ar
    25   12   43 1
    26   13   14 1
    27   14   15 1
    28   14   44 1
    29   14   45 1
    30   15   16 1
    31   15   46 1
    32   15   47 1
    33   16   17 1
    34   17   18 1
    35   17   48 1
    36   17   49 1
    37   18   23 ar
    38   18   19 ar
    39   19   20 ar
    40   19   50 1
    41   20   21 ar
    42   20   51 1
    43   21   26 1
    44   21   22 ar
    45   22   23 ar
    46   22   24 1
    47   23   52 1
    48   24   25 1
    49   25   26 1
    50   25   53 1
    51   25   54 1
    52   27   55 1
    53   28   29 1
    54   29   30 1
    55   29   56 1
    56   29   57 1
    57   30   31 1
    58   30   58 1
    59   30   59 1
    60   31   35 1
    61   31   32 1
    62   31   68 1
    63   32   33 1
    64   32   60 1
    65   32   61 1
    66   33   34 1
    67   33   62 1
    68   33   63 1
    69   34   35 1
    70   34   64 1
    71   34   65 1
    72   35   66 1
    73   35   67 1
@<TRIPOS>MOLECULE
CHEMBL93792
   52    56     0     0     0
SMALL
USER_CHARGES

@<TRIPOS>ATOM
      1 C1          2.1711   -3.4269   -2.3394 C.ar      1 <0>        -0.1222
      2 C2          3.4775   -2.9586   -2.4687 C.ar      1 <0>        -0.0830
      3 C3          3.9400   -1.9468   -1.6848 C.ar      1 <0>        -0.1480
      4 C4          3.0900   -1.3628   -0.7299 C.ar      1 <0>         0.0310
      5 C5          1.7613   -1.8388   -0.5987 C.ar      1 <0>        -0.0752
      6 C6          1.3198   -2.8858   -1.4258 C.ar      1 <0>        -0.0906
      7 C7          0.9115   -1.2547    0.3556 C.ar      1 <0>        -0.0393
      8 C8          1.3739   -0.2423    1.1394 C.ar      1 <0>        -0.1486
      9 C9          2.6798    0.2258    1.0101 C.ar      1 <0>         0.0113
     10 C10         3.5315   -0.3161    0.0969 C.ar      1 <0>        -0.6752
     11 S1          5.1790    0.2918   -0.0475 S.o2      1 <0>         2.6928
     12 O1          5.3174    1.3236    0.9198 O.2       1 <0>        -0.9487
     13 O2          6.0306   -0.8454   -0.0754 O.2       1 <0>        -0.9464
     14 N1          5.3058    1.0147   -1.5320 N.pl3     1 <0>        -0.9984
     15 C11         5.8622    0.2978   -2.6844 C.3       1 <0>         0.1531
     16 C12         6.8198    1.1956   -3.4271 C.ar      1 <0>        -0.0710
     17 C13         7.6252    0.6185   -4.3985 C.ar      1 <0>        -0.1409
     18 C14         8.5174    1.3921   -5.1211 C.ar      1 <0>         0.1103
     19 C15         8.6027    2.7543   -4.8706 C.ar      1 <0>        -0.1414
     20 C16         7.8037    3.3232   -3.9026 C.ar      1 <0>        -0.0900
     21 C17         6.9121    2.5458   -3.1723 C.ar      1 <0>        -0.0703
     22 C18         6.0929    3.2347   -2.1126 C.3       1 <0>        -0.0202
     23 C19         4.8590    2.4005   -1.7494 C.3       1 <0>         0.1316
     24 C20         5.6460    4.5787   -2.6273 C.ar      1 <0>        -0.0875
     25 C21         4.8587    4.6565   -3.7613 C.ar      1 <0>        -0.0895
     26 C22         4.4481    5.8873   -4.2354 C.ar      1 <0>        -0.1427
     27 C23         4.8260    7.0459   -3.5725 C.ar      1 <0>         0.1064
     28 C24         5.6156    6.9652   -2.4347 C.ar      1 <0>        -0.1421
     29 C25         6.0192    5.7317   -1.9616 C.ar      1 <0>        -0.0941
     30 O3          4.4237    8.2580   -4.0372 O.3       1 <0>        -0.5004
     31 O4          9.3053    0.8209   -6.0698 O.3       1 <0>        -0.4976
     32 H1          1.8279   -4.2283   -2.9768 H         1 <0>         0.1300
     33 H2          4.1327   -3.4056   -3.2017 H         1 <0>         0.1321
     34 H3          4.9549   -1.5947   -1.7957 H         1 <0>         0.1362
     35 H4          0.3101   -3.2588   -1.3372 H         1 <0>         0.1328
     36 H5         -0.1035   -1.6069    0.4665 H         1 <0>         0.1377
     37 H6          0.7186    0.2049    1.8721 H         1 <0>         0.1374
     38 H7          3.0216    1.0305    1.6442 H         1 <0>         0.1460
     39 H8          6.3917   -0.5898   -2.3382 H         1 <0>         0.1103
     40 H9          5.0532   -0.0002   -3.3512 H         1 <0>         0.0891
     41 H10         7.5558   -0.4418   -4.5920 H         1 <0>         0.1328
     42 H11         9.2931    3.3664   -5.4320 H         1 <0>         0.1299
     43 H12         7.8712    4.3836   -3.7091 H         1 <0>         0.1282
     44 H13         6.7057    3.3782   -1.2226 H         1 <0>         0.1022
     45 H14         4.1370    2.4315   -2.5654 H         1 <0>         0.0842
     46 H15         4.4035    2.7884   -0.8382 H         1 <0>         0.0988
     47 H16         4.5648    3.7542   -4.2770 H         1 <0>         0.1259
     48 H17         3.8337    5.9476   -5.1216 H         1 <0>         0.1287
     49 H18         5.9111    7.8658   -1.9169 H         1 <0>         0.1304
     50 H19         6.6303    5.6680   -1.0734 H         1 <0>         0.1303
     51 H20         3.5808    8.5595   -3.6715 H         1 <0>         0.3920
     52 H21         8.9103    0.8061   -6.9523 H         1 <0>         0.3917
@<TRIPOS>BOND
     1    1    6 ar
     2    1    2 ar
     3    1   32 1
     4    2    3 ar
     5    2   33 1
     6    3    4 ar
     7    3   34 1
     8    4   10 ar
     9    4    5 ar
    10    5    6 ar
    11    5    7 ar
    12    6   35 1
    13    7    8 ar
    14    7   36 1
    15    8    9 ar
    16    8   37 1
    17    9   10 ar
    18    9   38 1
    19   10   11 1
    20   11   12 2
    21   11   13 2
    22   11   14 1
    23   14   23 1
    24   14   15 1
    25   15   16 1
    26   15   39 1
    27   15   40 1
    28   16   21 ar
    29   16   17 ar
    30   17   18 ar
    31   17   41 1
    32   18   19 ar
    33   18   31 1
    34   19   20 ar
    35   19   42 1
    36   20   21 ar
    37   20   43 1
    38   21   22 1
    39   22   23 1
    40   22   24 1
    41   22   44 1
    42   23   45 1
    43   23   46 1
    44   24   29 ar
    45   24   25 ar
    46   25   26 ar
    47   25   47 1
    48   26   27 ar
    49   26   48 1
    50   27   28 ar
    51   27   30 1
    52   28   29 ar
    53   28   49 1
    54   29   50 1
    55   30   51 1
    56   31   52 1
@<TRIPOS>MOLECULE
CHEMBL93792__1
   52    56     0     0     0
SMALL
USER_CHARGES

@<TRIPOS>ATOM
      1 C1         -0.0521    1.1583   -0.1647 C.ar      1 <0>        -0.1214
      2 C2          1.1040    1.9367   -0.1533 C.ar      1 <0>        -0.0874
      3 C3          2.3365    1.3605   -0.1200 C.ar      1 <0>        -0.1472
      4 C4          2.4487   -0.0403   -0.0963 C.ar      1 <0>         0.0323
      5 C5          1.2729   -0.8319   -0.1074 C.ar      1 <0>        -0.0733
      6 C6          0.0177   -0.2006   -0.1424 C.ar      1 <0>        -0.0907
      7 C7          1.3851   -2.2322   -0.0832 C.ar      1 <0>        -0.0401
      8 C8          2.6178   -2.8087   -0.0495 C.ar      1 <0>        -0.1476
      9 C9          3.7735   -2.0305   -0.0381 C.ar      1 <0>         0.0112
     10 C10         3.7036   -0.6713   -0.0613 C.ar      1 <0>        -0.6744
     11 S1          5.1790    0.2918   -0.0475 S.o2      1 <0>         2.6918
     12 O1          4.9745    1.3346    0.8959 O.2       1 <0>        -0.9454
     13 O2          6.2609   -0.6241    0.0520 O.2       1 <0>        -0.9492
     14 N1          5.3058    1.0147   -1.5320 N.pl3     1 <0>        -0.9963
     15 C11         5.8622    0.2978   -2.6844 C.3       1 <0>         0.1653
     16 C12         5.0033    0.5447   -3.8993 C.ar      1 <0>        -0.0751
     17 C13         5.2300   -0.2398   -5.0211 C.ar      1 <0>        -0.1409
     18 C14         4.4812   -0.0537   -6.1707 C.ar      1 <0>         0.1096
     19 C15         3.4988    0.9258   -6.1978 C.ar      1 <0>        -0.1423
     20 C16         3.2736    1.7000   -5.0802 C.ar      1 <0>        -0.0906
     21 C17         4.0214    1.5100   -3.9237 C.ar      1 <0>        -0.0664
     22 C18         3.6987    2.3768   -2.7349 C.3       1 <0>        -0.0313
     23 C19         4.8590    2.4005   -1.7494 C.3       1 <0>         0.1190
     24 C20         3.4176    3.7802   -3.2065 C.ar      1 <0>        -0.0872
     25 C21         4.3893    4.4856   -3.8922 C.ar      1 <0>        -0.0884
     26 C22         4.1342    5.7723   -4.3252 C.ar      1 <0>        -0.1408
     27 C23         2.9017    6.3567   -4.0720 C.ar      1 <0>         0.1075
     28 C24         1.9282    5.6467   -3.3843 C.ar      1 <0>        -0.1419
     29 C25         2.1864    4.3583   -2.9579 C.ar      1 <0>        -0.0964
     30 O3          2.6485    7.6226   -4.4965 O.3       1 <0>        -0.4998
     31 O4          4.7075   -0.8254   -7.2663 O.3       1 <0>        -0.4982
     32 H1         -1.0180    1.6410   -0.1870 H         1 <0>         0.1298
     33 H2          1.0206    3.0133   -0.1714 H         1 <0>         0.1317
     34 H3          3.2236    1.9764   -0.1123 H         1 <0>         0.1397
     35 H4         -0.8867   -0.7908   -0.1512 H         1 <0>         0.1322
     36 H5          0.4979   -2.8480   -0.0909 H         1 <0>         0.1370
     37 H6          2.7012   -3.8853   -0.0309 H         1 <0>         0.1369
     38 H7          4.7394   -2.5131   -0.0109 H         1 <0>         0.1455
     39 H8          6.8746    0.6524   -2.8778 H         1 <0>         0.0954
     40 H9          5.8877   -0.7704   -2.4692 H         1 <0>         0.0984
     41 H10         5.9960   -1.0007   -4.9975 H         1 <0>         0.1326
     42 H11         2.9129    1.0812   -7.0916 H         1 <0>         0.1288
     43 H12         2.5092    2.4626   -5.1032 H         1 <0>         0.1267
     44 H13         2.8139    1.9837   -2.2343 H         1 <0>         0.1036
     45 H14         4.5288    2.8339   -0.8054 H         1 <0>         0.1070
     46 H15         5.6771    2.9915   -2.1611 H         1 <0>         0.0923
     47 H16         5.3486    4.0302   -4.0890 H         1 <0>         0.1269
     48 H17         4.8938    6.3231   -4.8600 H         1 <0>         0.1296
     49 H18         0.9680    6.0994   -3.1859 H         1 <0>         0.1301
     50 H19         1.4274    3.8035   -2.4263 H         1 <0>         0.1276
     51 H20         2.2674    7.6710   -5.3840 H         1 <0>         0.3919
     52 H21         4.1802   -1.6356   -7.2923 H         1 <0>         0.3918
@<TRIPOS>BOND
     1    1    6 ar
     2    1    2 ar
     3    1   32 1
     4    2    3 ar
     5    2   33 1
     6    3    4 ar
     7    3   34 1
     8    4   10 ar
     9    4    5 ar
    10    5    6 ar
    11    5    7 ar
    12    6   35 1
    13    7    8 ar
    14    7   36 1
    15    8    9 ar
    16    8   37 1
    17    9   10 ar
    18    9   38 1
    19   10   11 1
    20   11   12 2
    21   11   13 2
    22   11   14 1
    23   14   23 1
    24   14   15 1
    25   15   16 1
    26   15   39 1
    27   15   40 1
    28   16   21 ar
    29   16   17 ar
    30   17   18 ar
    31   17   41 1
    32   18   19 ar
    33   18   31 1
    34   19   20 ar
    35   19   42 1
    36   20   21 ar
    37   20   43 1
    38   21   22 1
    39   22   23 1
    40   22   24 1
    41   22   44 1
    42   23   45 1
    43   23   46 1
    44   24   29 ar
    45   24   25 ar
    46   25   26 ar
    47   25   47 1
    48   26   27 ar
    49   26   48 1
    50   27   28 ar
    51   27   30 1
    52   28   29 ar
    53   28   49 1
    54   29   50 1
    55   30   51 1
    56   31   52 1
@<TRIPOS>MOLECULE
CHEMBL537254
   61    65     0     0     0
SMALL
USER_CHARGES

@<TRIPOS>ATOM
      1 C1          0.2980    1.0392   -0.5212 C.ar      1 <0>        -0.0779
      2 C2          1.5035    1.7073   -0.5539 C.ar      1 <0>        -0.1412
      3 C3          2.6950    0.9966   -0.5005 C.ar      1 <0>         0.1249
      4 C4          2.6784   -0.3890   -0.4135 C.ar      1 <0>        -0.1446
      5 C5          1.4774   -1.0652   -0.3798 C.ar      1 <0>        -0.0779
      6 C6          0.2765   -0.3544   -0.4338 C.ar      1 <0>        -0.0327
      7 C7         -1.0126   -1.0746   -0.3979 C.2       1 <0>        -0.0862
      8 C8         -1.2262   -2.4120   -0.3099 C.2       1 <0>         0.0588
      9 C9         -2.5953   -2.9064   -0.2896 C.ar      1 <0>        -0.1084
     10 C10        -3.0489   -4.2453   -0.2041 C.ar      1 <0>        -0.0486
     11 C11        -4.3770   -4.5312   -0.1979 C.ar      1 <0>        -0.1408
     12 C12        -5.3377   -3.5249   -0.2753 C.ar      1 <0>         0.1431
     13 C13        -4.9328   -2.2026   -0.3601 C.ar      1 <0>        -0.1018
     14 C14        -3.5873   -1.9038   -0.3666 C.ar      1 <0>        -0.0966
     15 S1         -2.6591   -0.3941   -0.4522 S.3       1 <0>         0.1044
     16 O1         -6.6605   -3.8378   -0.2682 O.3       1 <0>        -0.4888
     17 O2         -0.1777   -3.2766   -0.2421 O.3       1 <0>        -0.2361
     18 C15         0.3028   -3.6019    0.9872 C.ar      1 <0>         0.1014
     19 C16        -0.2784   -3.0606    2.1248 C.ar      1 <0>        -0.1456
     20 C17         0.2096   -3.3916    3.3738 C.ar      1 <0>        -0.0998
     21 C18         1.2810   -4.2648    3.4907 C.ar      1 <0>         0.0812
     22 C19         1.8622   -4.8060    2.3535 C.ar      1 <0>        -0.1621
     23 C20         1.3708   -4.4797    1.1047 C.ar      1 <0>        -0.1073
     24 O3          1.7619   -4.5898    4.7204 O.3       1 <0>        -0.3277
     25 C21         2.8670   -5.4947    4.7664 C.3       1 <0>         0.0254
     26 C22         3.2655   -5.7393    6.2232 C.3       1 <0>        -0.0008
     27 N1          2.1590   -6.3985    6.9296 N.4       1 <0>        -0.3840
     28 C23         2.4795   -6.4919    8.3589 C.3       1 <0>        -0.0071
     29 C24         1.2964   -7.1043    9.1119 C.3       1 <0>        -0.1466
     30 C25         1.0150   -8.5038    8.5577 C.3       1 <0>        -0.1391
     31 C26         0.7551   -8.4031    7.0518 C.3       1 <0>        -0.1453
     32 C27         1.9583   -7.7427    6.3752 C.3       1 <0>        -0.0131
     33 O4          3.8813    1.6593   -0.5340 O.3       1 <0>        -0.4960
     34 H1         -0.6285    1.5930   -0.5587 H         1 <0>         0.1321
     35 H2          1.5210    2.7850   -0.6216 H         1 <0>         0.1389
     36 H3          3.6076   -0.9378   -0.3726 H         1 <0>         0.1346
     37 H4          1.4654   -2.1430   -0.3125 H         1 <0>         0.1406
     38 H5         -2.3301   -5.0491   -0.1435 H         1 <0>         0.1306
     39 H6         -4.6952   -5.5611   -0.1319 H         1 <0>         0.1387
     40 H7         -5.6660   -1.4120   -0.4207 H         1 <0>         0.1449
     41 H8         -7.0524   -3.8693    0.6153 H         1 <0>         0.3986
     42 H9         -1.1122   -2.3801    2.0338 H         1 <0>         0.1373
     43 H10        -0.2428   -2.9703    4.2593 H         1 <0>         0.1363
     44 H11         2.6966   -5.4856    2.4448 H         1 <0>         0.1358
     45 H12         1.8205   -4.9046    0.2194 H         1 <0>         0.1426
     46 H13         2.5822   -6.4398    4.3041 H         1 <0>         0.0859
     47 H14         3.7107   -5.0656    4.2260 H         1 <0>         0.1091
     48 H15         4.1488   -6.3771    6.2561 H         1 <0>         0.1488
     49 H16         3.4873   -4.7865    6.7041 H         1 <0>         0.1423
     50 H17         3.3597   -7.1207    8.4931 H         1 <0>         0.1292
     51 H18         2.6827   -5.4955    8.7512 H         1 <0>         0.1309
     52 H19         1.5371   -7.1745   10.1726 H         1 <0>         0.1130
     53 H20         0.4157   -6.4761    8.9786 H         1 <0>         0.0878
     54 H21         1.8767   -9.1469    8.7366 H         1 <0>         0.0822
     55 H22         0.1379   -8.9219    9.0517 H         1 <0>         0.0946
     56 H23         0.6089   -9.4017    6.6401 H         1 <0>         0.1122
     57 H24        -0.1368   -7.8019    6.8758 H         1 <0>         0.0876
     58 H25         1.7767   -7.6696    5.3029 H         1 <0>         0.1275
     59 H26         2.8496   -8.3448    6.5517 H         1 <0>         0.1302
     60 H27         4.2183    1.9067    0.3380 H         1 <0>         0.3951
     61 H28         1.3157   -5.8574    6.8108 H         1 <0>         0.4294
@<TRIPOS>BOND
     1    1    6 ar
     2    1    2 ar
     3    1   34 1
     4    2    3 ar
     5    2   35 1
     6    3    4 ar
     7    3   33 1
     8    4    5 ar
     9    4   36 1
    10    5    6 ar
    11    5   37 1
    12    6    7 1
    13    7   15 1
    14    7    8 2
    15    8    9 1
    16    8   17 1
    17    9   14 ar
    18    9   10 ar
    19   10   11 ar
    20   10   38 1
    21   11   12 ar
    22   11   39 1
    23   12   13 ar
    24   12   16 1
    25   13   14 ar
    26   13   40 1
    27   14   15 1
    28   16   41 1
    29   17   18 1
    30   18   23 ar
    31   18   19 ar
    32   19   20 ar
    33   19   42 1
    34   20   21 ar
    35   20   43 1
    36   21   22 ar
    37   21   24 1
    38   22   23 ar
    39   22   44 1
    40   23   45 1
    41   24   25 1
    42   25   26 1
    43   25   46 1
    44   25   47 1
    45   26   27 1
    46   26   48 1
    47   26   49 1
    48   27   32 1
    49   27   28 1
    50   27   61 1
    51   28   29 1
    52   28   50 1
    53   28   51 1
    54   29   30 1
    55   29   52 1
    56   29   53 1
    57   30   31 1
    58   30   54 1
    59   30   55 1
    60   31   32 1
    61   31   56 1
    62   31   57 1
    63   32   58 1
    64   32   59 1
    65   33   60 1
@<TRIPOS>MOLECULE
CHEMBL181862
   61    66     0     0     0
SMALL
USER_CHARGES

@<TRIPOS>ATOM
      1 C1          1.1631   -0.6117   -0.4390 C.ar      1 <0>        -0.0873
      2 C2          2.3518    0.0921   -0.4484 C.ar      1 <0>        -0.1389
      3 C3          2.3800    1.4096   -0.0147 C.ar      1 <0>         0.1156
      4 C4          1.2137    2.0170    0.4273 C.ar      1 <0>        -0.1462
      5 C5          0.0275    1.3089    0.4346 C.ar      1 <0>        -0.0838
      6 C6          0.0021   -0.0041    0.0020 C.ar      1 <0>        -0.0894
      7 C7         -1.2934   -0.7740    0.0107 C.3       1 <0>        -0.0643
      8 H1         -2.1334   -0.0869    0.1120 H         1 <0>         0.1382
      9 C8         -1.2969   -1.7821    1.1721 C.3       1 <0>         0.1495
     10 H2         -2.1779   -2.4197    1.0986 H         1 <0>         0.0961
     11 O1         -0.1255   -2.5802    1.0967 O.3       1 <0>        -0.3050
     12 C9          0.1551   -3.3416    0.0132 C.ar      1 <0>         0.1210
     13 C10         0.9986   -4.4351    0.1946 C.ar      1 <0>        -0.1140
     14 C11         1.3394   -5.2447   -0.8692 C.ar      1 <0>        -0.1062
     15 C12         0.8443   -4.9772   -2.1372 C.ar      1 <0>         0.0987
     16 C13        -0.0005   -3.8960   -2.3286 C.ar      1 <0>        -0.0901
     17 C14        -0.3494   -3.0850   -1.2568 C.ar      1 <0>        -0.1477
     18 S1         -1.4568   -1.7323   -1.5285 S.3       1 <0>        -0.0840
     19 O2          1.1866   -5.7716   -3.1864 O.3       1 <0>        -0.4915
     20 C15        -1.3198   -1.0400    2.4835 C.ar      1 <0>        -0.1044
     21 C16        -0.1522   -0.5024    2.9927 C.ar      1 <0>        -0.0349
     22 C17        -0.1704    0.1779    4.1949 C.ar      1 <0>        -0.1426
     23 C18        -1.3617    0.3218    4.8912 C.ar      1 <0>         0.1219
     24 C19        -2.5320   -0.2182    4.3779 C.ar      1 <0>        -0.2027
     25 C20        -2.5094   -0.8931    3.1727 C.ar      1 <0>        -0.0588
     26 O3         -1.3822    0.9902    6.0743 O.3       1 <0>        -0.3248
     27 C21        -2.6441    1.0995    6.7359 C.3       1 <0>         0.0277
     28 C22        -2.4698    1.8785    8.0411 C.3       1 <0>         0.0050
     29 N1         -2.0692    3.2589    7.7377 N.4       1 <0>        -0.3645
     30 C23        -0.6949    3.2806    7.1751 C.3       1 <0>        -0.0040
     31 C24        -0.2234    4.7315    7.4464 C.3       1 <0>        -0.1263
     32 C25        -0.8324    5.0354    8.8354 C.3       1 <0>        -0.1371
     33 H3         -0.9018    6.0789    9.1428 H         1 <0>         0.1526
     34 C26        -2.0129    4.0573    8.9803 C.3       1 <0>        -0.0955
     35 H4         -2.9617    4.3854    9.4048 H         1 <0>         0.1839
     36 C27        -0.7653    3.9329    9.8958 C.3       1 <0>        -0.1165
     37 O4          3.5482    2.1039   -0.0225 O.3       1 <0>        -0.5000
     38 H5          1.1398   -1.6359   -0.7807 H         1 <0>         0.1323
     39 H6          3.2585   -0.3831   -0.7926 H         1 <0>         0.1314
     40 H7          1.2331    3.0424    0.7657 H         1 <0>         0.1293
     41 H8         -0.8807    1.7813    0.7787 H         1 <0>         0.1235
     42 H9          1.3899   -4.6512    1.1778 H         1 <0>         0.1413
     43 H10         1.9942   -6.0894   -0.7144 H         1 <0>         0.1430
     44 H11        -0.3883   -3.6831   -3.3139 H         1 <0>         0.1405
     45 H12         0.5878   -6.5179   -3.3264 H         1 <0>         0.3947
     46 H13         0.7750   -0.6147    2.4504 H         1 <0>         0.1385
     47 H14         0.7420    0.5970    4.5927 H         1 <0>         0.1344
     48 H15        -3.4607   -0.1075    4.9180 H         1 <0>         0.1315
     49 H16        -3.4210   -1.3098    2.7705 H         1 <0>         0.1344
     50 H17        -3.3483    1.6246    6.0906 H         1 <0>         0.0860
     51 H18        -3.0265    0.1028    6.9560 H         1 <0>         0.1102
     52 H19        -3.4123    1.8857    8.5886 H         1 <0>         0.1495
     53 H20        -1.7003    1.4021    8.6486 H         1 <0>         0.1383
     54 H21        -0.0559    2.5653    7.6930 H         1 <0>         0.1352
     55 H22        -0.7142    3.0762    6.1046 H         1 <0>         0.1452
     56 H23         0.8648    4.7836    7.4821 H         1 <0>         0.1215
     57 H24        -0.6192    5.4133    6.6937 H         1 <0>         0.1068
     58 H25        -0.0792    3.1049    9.7172 H         1 <0>         0.1179
     59 H26        -0.8806    4.2304   10.9381 H         1 <0>         0.1410
     60 H27         3.7178    2.5792   -0.8474 H         1 <0>         0.3956
     61 H28        -2.7185    3.6745    7.0868 H         1 <0>         0.4283
@<TRIPOS>BOND
     1    1    6 ar
     2    1    2 ar
     3    1   38 1
     4    2    3 ar
     5    2   39 1
     6    3    4 ar
     7    3   37 1
     8    4    5 ar
     9    4   40 1
    10    5    6 ar
    11    5   41 1
    12    6    7 1
    13    7    8 1
    14    7   18 1
    15    7    9 1
    16    9   10 1
    17    9   11 1
    18    9   20 1
    19   11   12 1
    20   12   17 ar
    21   12   13 ar
    22   13   14 ar
    23   13   42 1
    24   14   15 ar
    25   14   43 1
    26   15   16 ar
    27   15   19 1
    28   16   17 ar
    29   16   44 1
    30   17   18 1
    31   19   45 1
    32   20   25 ar
    33   20   21 ar
    34   21   22 ar
    35   21   46 1
    36   22   23 ar
    37   22   47 1
    38   23   24 ar
    39   23   26 1
    40   24   25 ar
    41   24   48 1
    42   25   49 1
    43   26   27 1
    44   27   28 1
    45   27   50 1
    46   27   51 1
    47   28   29 1
    48   28   52 1
    49   28   53 1
    50   29   34 1
    51   29   30 1
    52   29   61 1
    53   30   31 1
    54   30   54 1
    55   30   55 1
    56   31   32 1
    57   31   56 1
    58   31   57 1
    59   32   33 1
    60   32   36 1
    61   32   34 1
    62   34   35 1
    63   34   36 1
    64   36   58 1
    65   36   59 1
    66   37   60 1
@<TRIPOS>MOLECULE
CHEMBL101914
   50    54     0     0     0
SMALL
USER_CHARGES

@<TRIPOS>ATOM
      1 C1          0.0022    1.3974   -0.0076 C.3       1 <0>        -0.1307
      2 C2          0.0001   -0.1076    0.0320 C.2       1 <0>        -0.0561
      3 C3         -0.1022   -0.7136   -1.1541 C.2       1 <0>        -0.1768
      4 C4         -0.0887   -2.2113   -1.2681 C.3       1 <0>         0.2129
      5 N1          0.7261   -2.7589   -0.1781 N.pl3     1 <0>        -0.7354
      6 C5          0.5648   -2.2349    1.1057 C.ar      1 <0>         0.2206
      7 C6          0.1120   -0.9034    1.2624 C.ar      1 <0>        -0.0828
      8 C7         -0.2768   -0.4919    2.5372 C.ar      1 <0>        -0.0545
      9 C8          0.0804   -1.2828    3.6350 C.ar      1 <0>        -0.0826
     10 C9          0.7110   -2.5132    3.4671 C.ar      1 <0>        -0.0604
     11 C10         0.9384   -2.9948    2.1972 C.ar      1 <0>        -0.1771
     12 C11        -0.2069   -0.8116    5.0115 C.ar      1 <0>        -0.1256
     13 C12         0.1916   -1.5503    6.1201 C.ar      1 <0>        -0.0742
     14 C13        -0.0896   -1.0896    7.3921 C.ar      1 <0>        -0.1566
     15 C14        -0.7636    0.1062    7.5641 C.ar      1 <0>        -0.0788
     16 C15        -1.1617    0.8463    6.4686 C.ar      1 <0>        -0.1535
     17 C16        -0.8846    0.3961    5.1839 C.ar      1 <0>         0.1539
     18 O1         -1.2661    1.1213    4.1233 O.3       1 <0>        -0.3113
     19 C17        -1.0668    0.7615    2.7719 C.3       1 <0>         0.1925
     20 C18        -2.4236    0.6032    2.1354 C.ar      1 <0>        -0.0965
     21 C19        -3.2900   -0.3739    2.5888 C.ar      1 <0>        -0.0903
     22 C20        -4.5345   -0.5192    2.0049 C.ar      1 <0>        -0.1203
     23 C21        -4.9128    0.3129    0.9679 C.ar      1 <0>        -0.1113
     24 C22        -4.0467    1.2906    0.5150 C.ar      1 <0>        -0.1206
     25 C23        -2.8039    1.4386    1.1018 C.ar      1 <0>        -0.1031
     26 C24         0.5168   -2.6186   -2.6124 C.3       1 <0>        -0.1526
     27 C25        -1.5151   -2.7519   -1.1668 C.3       1 <0>        -0.1557
     28 H1          0.1958    1.7869    0.9918 H         1 <0>         0.0658
     29 H2          0.7803    1.7419   -0.6889 H         1 <0>         0.0729
     30 H3         -0.9680    1.7531   -0.3546 H         1 <0>         0.0802
     31 H4         -0.1933   -0.1068   -2.0415 H         1 <0>         0.1231
     32 H5          1.3632   -3.4712   -0.3460 H         1 <0>         0.4024
     33 H6          1.0197   -3.0891    4.3257 H         1 <0>         0.1307
     34 H7          1.4047   -3.9591    2.0527 H         1 <0>         0.1287
     35 H8          0.7225   -2.4819    5.9950 H         1 <0>         0.1265
     36 H9          0.2159   -1.6644    8.2537 H         1 <0>         0.1259
     37 H10        -0.9763    0.4638    8.5606 H         1 <0>         0.1301
     38 H11        -1.6913    1.7776    6.6046 H         1 <0>         0.1319
     39 H12        -0.5584    1.6140    2.3128 H         1 <0>         0.1119
     40 H13        -2.9944   -1.0240    3.3990 H         1 <0>         0.1155
     41 H14        -5.2111   -1.2830    2.3587 H         1 <0>         0.1221
     42 H15        -5.8848    0.1990    0.5112 H         1 <0>         0.1226
     43 H16        -4.3421    1.9404   -0.2954 H         1 <0>         0.1244
     44 H17        -2.1287    2.2049    0.7505 H         1 <0>         0.1284
     45 H18         1.5371   -2.2412   -2.6806 H         1 <0>         0.0632
     46 H19         0.5253   -3.7056   -2.6926 H         1 <0>         0.0636
     47 H20        -0.0806   -2.1992   -3.4220 H         1 <0>         0.0747
     48 H21        -2.1199   -2.3348   -1.9720 H         1 <0>         0.0657
     49 H22        -1.4986   -3.8386   -1.2502 H         1 <0>         0.0589
     50 H23        -1.9440   -2.4678   -0.2058 H         1 <0>         0.0577
@<TRIPOS>BOND
     1    1    2 1
     2    1   28 1
     3    1   29 1
     4    1   30 1
     5    2    7 1
     6    2    3 2
     7    3    4 1
     8    3   31 1
     9    4    5 1
    10    4   26 1
    11    4   27 1
    12    5    6 1
    13    5   32 1
    14    6   11 ar
    15    6    7 ar
    16    7    8 ar
    17    8   19 1
    18    8    9 ar
    19    9   10 ar
    20    9   12 1
    21   10   11 ar
    22   10   33 1
    23   11   34 1
    24   12   17 ar
    25   12   13 ar
    26   13   14 ar
    27   13   35 1
    28   14   15 ar
    29   14   36 1
    30   15   16 ar
    31   15   37 1
    32   16   17 ar
    33   16   38 1
    34   17   18 1
    35   18   19 1
    36   19   20 1
    37   19   39 1
    38   20   25 ar
    39   20   21 ar
    40   21   22 ar
    41   21   40 1
    42   22   23 ar
    43   22   41 1
    44   23   24 ar
    45   23   42 1
    46   24   25 ar
    47   24   43 1
    48   25   44 1
    49   26   45 1
    50   26   46 1
    51   26   47 1
    52   27   48 1
    53   27   49 1
    54   27   50 1
@<TRIPOS>MOLECULE
CHEMBL101914__1
   50    54     0     0     0
SMALL
USER_CHARGES

@<TRIPOS>ATOM
      1 C1         -0.4204    1.9214    0.0469 C.3       1 <0>        -0.1246
      2 C2         -0.3378    0.4343   -0.1746 C.2       1 <0>        -0.0627
      3 C3         -0.5680    0.0211   -1.4241 C.2       1 <0>        -0.1751
      4 C4         -0.5055   -1.4318   -1.7951 C.3       1 <0>         0.2116
      5 N1          0.4444   -2.1134   -0.9109 N.pl3     1 <0>        -0.7346
      6 C5          0.4403   -1.8092    0.4499 C.ar      1 <0>         0.2232
      7 C6         -0.0179   -0.5402    0.8803 C.ar      1 <0>        -0.0894
      8 C7         -0.1847   -0.3365    2.2430 C.ar      1 <0>        -0.0499
      9 C8          0.2806   -1.3055    3.1460 C.ar      1 <0>        -0.0845
     10 C9          0.8954   -2.4692    2.6999 C.ar      1 <0>        -0.0546
     11 C10         0.9669   -2.7203    1.3469 C.ar      1 <0>        -0.1816
     12 C11         0.0612   -1.0938    4.5970 C.ar      1 <0>        -0.0940
     13 C12         0.7646   -1.8097    5.5561 C.ar      1 <0>        -0.0846
     14 C13         0.5266   -1.5716    6.8971 C.ar      1 <0>        -0.1411
     15 C14        -0.4046   -0.6243    7.2842 C.ar      1 <0>        -0.0923
     16 C15        -1.1089    0.0946    6.3351 C.ar      1 <0>        -0.1367
     17 C16        -0.8805   -0.1366    4.9921 C.ar      1 <0>         0.1221
     18 O1         -1.5580    0.5362    4.0275 O.3       1 <0>        -0.3051
     19 C17        -0.8245    0.8864    2.8440 C.3       1 <0>         0.1802
     20 C18         0.2427    1.8736    3.2412 C.ar      1 <0>        -0.1195
     21 C19         1.4768    1.8448    2.6192 C.ar      1 <0>        -0.0964
     22 C20         2.4557    2.7503    2.9835 C.ar      1 <0>        -0.1233
     23 C21         2.2002    3.6850    3.9694 C.ar      1 <0>        -0.1114
     24 C22         0.9657    3.7144    4.5907 C.ar      1 <0>        -0.1210
     25 C23        -0.0146    2.8116    4.2234 C.ar      1 <0>        -0.0936
     26 C24        -1.8913   -2.0628   -1.6454 C.3       1 <0>        -0.1581
     27 C25        -0.0406   -1.5704   -3.2469 C.3       1 <0>        -0.1528
     28 H1          0.5091    2.2745    0.4935 H         1 <0>         0.0745
     29 H2         -0.5782    2.4228   -0.9080 H         1 <0>         0.0700
     30 H3         -1.2521    2.1435    0.7157 H         1 <0>         0.0693
     31 H4         -0.8023    0.7583   -2.1781 H         1 <0>         0.1247
     32 H5          1.0682   -2.7687   -1.2675 H         1 <0>         0.4029
     33 H6          1.3122   -3.1706    3.4066 H         1 <0>         0.1299
     34 H7          1.4328   -3.6259    0.9846 H         1 <0>         0.1281
     35 H8          1.4958   -2.5470    5.2604 H         1 <0>         0.1260
     36 H9          1.0714   -2.1277    7.6460 H         1 <0>         0.1255
     37 H10        -0.5837   -0.4447    8.3337 H         1 <0>         0.1287
     38 H11        -1.8341    0.8324    6.6446 H         1 <0>         0.1310
     39 H12        -1.5306    1.3361    2.1583 H         1 <0>         0.1340
     40 H13         1.6765    1.1145    1.8489 H         1 <0>         0.1248
     41 H14         3.4202    2.7274    2.4981 H         1 <0>         0.1220
     42 H15         2.9652    4.3920    4.2545 H         1 <0>         0.1222
     43 H16         0.7662    4.4444    5.3612 H         1 <0>         0.1238
     44 H17        -0.9803    2.8370    4.7063 H         1 <0>         0.1262
     45 H18        -2.5958   -1.5523   -2.3021 H         1 <0>         0.0668
     46 H19        -1.8414   -3.1175   -1.9157 H         1 <0>         0.0602
     47 H20        -2.2240   -1.9679   -0.6118 H         1 <0>         0.0576
     48 H21         0.9485   -1.1256   -3.3556 H         1 <0>         0.0632
     49 H22         0.0042   -2.6260   -3.5148 H         1 <0>         0.0637
     50 H23        -0.7436   -1.0583   -3.9039 H         1 <0>         0.0749
@<TRIPOS>BOND
     1    1    2 1
     2    1   28 1
     3    1   29 1
     4    1   30 1
     5    2    7 1
     6    2    3 2
     7    3    4 1
     8    3   31 1
     9    4    5 1
    10    4   26 1
    11    4   27 1
    12    5    6 1
    13    5   32 1
    14    6   11 ar
    15    6    7 ar
    16    7    8 ar
    17    8   19 1
    18    8    9 ar
    19    9   10 ar
    20    9   12 1
    21   10   11 ar
    22   10   33 1
    23   11   34 1
    24   12   17 ar
    25   12   13 ar
    26   13   14 ar
    27   13   35 1
    28   14   15 ar
    29   14   36 1
    30   15   16 ar
    31   15   37 1
    32   16   17 ar
    33   16   38 1
    34   17   18 1
    35   18   19 1
    36   19   20 1
    37   19   39 1
    38   20   25 ar
    39   20   21 ar
    40   21   22 ar
    41   21   40 1
    42   22   23 ar
    43   22   41 1
    44   23   24 ar
    45   23   42 1
    46   24   25 ar
    47   24   43 1
    48   25   44 1
    49   26   45 1
    50   26   46 1
    51   26   47 1
    52   27   48 1
    53   27   49 1
    54   27   50 1
@<TRIPOS>MOLECULE
CHEMBL1086775
   65    70     0     0     0
SMALL
USER_CHARGES

@<TRIPOS>ATOM
      1 C1         -0.0164    1.3773   -0.0547 C.ar      1 <0>        -0.0575
      2 C2          1.1697    2.0854   -0.0624 C.ar      1 <0>        -0.1396
      3 C3          2.3801    1.4093   -0.0131 C.ar      1 <0>         0.1174
      4 C4          2.3960    0.0233    0.0439 C.ar      1 <0>        -0.1970
      5 C5          1.2071   -0.6802    0.0513 C.ar      1 <0>        -0.0637
      6 C6          0.0021   -0.0041    0.0020 C.ar      1 <0>        -0.1308
      7 C7         -1.2934   -0.7740    0.0107 C.3       1 <0>         0.1891
      8 H1         -2.0997   -0.1244   -0.3298 H         1 <0>         0.1332
      9 C8         -1.5866   -1.2357    1.4120 C.2       1 <0>        -0.1104
     10 C9         -1.1299   -2.4395    1.8287 C.2       1 <0>        -0.0385
     11 C10        -1.4430   -2.9122    3.2220 C.3       1 <0>        -0.1221
     12 C11        -0.6172   -2.1389    4.2485 C.3       1 <0>         0.0756
     13 O1         -0.6164   -0.7458    3.9658 O.3       1 <0>        -0.3252
     14 C12        -1.7993   -0.1682    3.6334 C.ar      1 <0>         0.1314
     15 C13        -2.3300   -0.3844    2.3504 C.ar      1 <0>        -0.0819
     16 C14        -3.5413    0.2038    1.9903 C.ar      1 <0>        -0.0748
     17 C15        -4.2148    0.9944    2.8985 C.ar      1 <0>        -0.1479
     18 C16        -3.6902    1.2050    4.1675 C.ar      1 <0>         0.1316
     19 C17        -2.4836    0.6237    4.5343 C.ar      1 <0>        -0.1585
     20 O2         -4.3618    1.9843    5.0550 O.3       1 <0>        -0.4956
     21 C18        -0.3531   -3.2590    0.8892 C.ar      1 <0>        -0.1306
     22 C19         0.4240   -4.3318    1.3187 C.ar      1 <0>        -0.0558
     23 C20         1.1362   -5.0712    0.3969 C.ar      1 <0>        -0.1692
     24 C21         1.0801   -4.7483   -0.9535 C.ar      1 <0>         0.1493
     25 C22         0.3073   -3.6806   -1.3900 C.ar      1 <0>        -0.1744
     26 C23        -0.4119   -2.9340   -0.4780 C.ar      1 <0>         0.1493
     27 O3         -1.1834   -1.8906   -0.8725 O.3       1 <0>        -0.2945
     28 O4          1.7866   -5.4821   -1.8527 O.3       1 <0>        -0.4959
     29 O5          3.5484    2.1036   -0.0209 O.3       1 <0>        -0.3244
     30 C24         4.7562    1.3418    0.0319 C.3       1 <0>         0.0273
     31 C25         5.9577    2.2889    0.0142 C.3       1 <0>         0.0016
     32 N1          5.9578    3.1027    1.2371 N.4       1 <0>        -0.3913
     33 C26         4.7806    3.9972    1.2396 C.3       1 <0>        -0.0017
     34 C27         5.2812    5.3080    1.8960 C.3       1 <0>        -0.1455
     35 C28         6.7259    5.4056    1.3390 C.3       1 <0>        -0.1418
     36 C29         7.1768    3.9309    1.2820 C.3       1 <0>        -0.0134
     37 H2         -0.9591    1.9033   -0.0886 H         1 <0>         0.1369
     38 H3          1.1547    3.1644   -0.1071 H         1 <0>         0.1350
     39 H4          3.3370   -0.5053    0.0820 H         1 <0>         0.1274
     40 H5          1.2189   -1.7592    0.0956 H         1 <0>         0.1330
     41 H6         -2.5030   -2.7588    3.4241 H         1 <0>         0.0865
     42 H7         -1.2123   -3.9745    3.3016 H         1 <0>         0.0953
     43 H8         -1.0379   -2.3016    5.2408 H         1 <0>         0.0654
     44 H9          0.4086   -2.5071    4.2319 H         1 <0>         0.1015
     45 H10        -3.9507    0.0417    1.0041 H         1 <0>         0.1360
     46 H11        -5.1532    1.4517    2.6216 H         1 <0>         0.1381
     47 H12        -2.0808    0.7910    5.5223 H         1 <0>         0.1386
     48 H13        -4.9888    1.4992    5.6087 H         1 <0>         0.3977
     49 H14         0.4693   -4.5834    2.3680 H         1 <0>         0.1359
     50 H15         1.7399   -5.9040    0.7262 H         1 <0>         0.1375
     51 H16         0.2687   -3.4345   -2.4409 H         1 <0>         0.1425
     52 H17         1.3004   -6.2360   -2.2138 H         1 <0>         0.4005
     53 H18         4.7731    0.7505    0.9474 H         1 <0>         0.0855
     54 H19         4.8046    0.6773   -0.8308 H         1 <0>         0.1090
     55 H20         6.8782    1.7071   -0.0352 H         1 <0>         0.1490
     56 H21         5.8932    2.9414   -0.8565 H         1 <0>         0.1406
     57 H22         4.4463    4.1872    0.2197 H         1 <0>         0.1376
     58 H23         3.9741    3.5614    1.8293 H         1 <0>         0.1342
     59 H24         4.6807    6.1593    1.5753 H         1 <0>         0.1162
     60 H25         5.2866    5.2232    2.9827 H         1 <0>         0.0968
     61 H26         6.7257    5.8473    0.3425 H         1 <0>         0.0985
     62 H27         7.3618    5.9772    2.0149 H         1 <0>         0.1123
     63 H28         7.7587    3.6864    2.1707 H         1 <0>         0.1323
     64 H29         7.7743    3.7601    0.3864 H         1 <0>         0.1316
     65 H30         5.9262    2.5009    2.0464 H         1 <0>         0.4245
@<TRIPOS>BOND
     1    1    6 ar
     2    1    2 ar
     3    1   37 1
     4    2    3 ar
     5    2   38 1
     6    3    4 ar
     7    3   29 1
     8    4    5 ar
     9    4   39 1
    10    5    6 ar
    11    5   40 1
    12    6    7 1
    13    7    8 1
    14    7   27 1
    15    7    9 1
    16    9   15 1
    17    9   10 2
    18   10   11 1
    19   10   21 1
    20   11   12 1
    21   11   41 1
    22   11   42 1
    23   12   13 1
    24   12   43 1
    25   12   44 1
    26   13   14 1
    27   14   19 ar
    28   14   15 ar
    29   15   16 ar
    30   16   17 ar
    31   16   45 1
    32   17   18 ar
    33   17   46 1
    34   18   19 ar
    35   18   20 1
    36   19   47 1
    37   20   48 1
    38   21   26 ar
    39   21   22 ar
    40   22   23 ar
    41   22   49 1
    42   23   24 ar
    43   23   50 1
    44   24   25 ar
    45   24   28 1
    46   25   26 ar
    47   25   51 1
    48   26   27 1
    49   28   52 1
    50   29   30 1
    51   30   31 1
    52   30   53 1
    53   30   54 1
    54   31   32 1
    55   31   55 1
    56   31   56 1
    57   32   36 1
    58   32   33 1
    59   32   65 1
    60   33   34 1
    61   33   57 1
    62   33   58 1
    63   34   35 1
    64   34   59 1
    65   34   60 1
    66   35   36 1
    67   35   61 1
    68   35   62 1
    69   36   63 1
    70   36   64 1
@<TRIPOS>MOLECULE
CHEMBL184371
   74    80     0     0     0
SMALL
USER_CHARGES

@<TRIPOS>ATOM
      1 C1          1.1631   -0.6117   -0.4390 C.ar      1 <0>        -0.0873
      2 C2          2.3518    0.0921   -0.4484 C.ar      1 <0>        -0.1390
      3 C3          2.3800    1.4096   -0.0147 C.ar      1 <0>         0.1157
      4 C4          1.2137    2.0170    0.4273 C.ar      1 <0>        -0.1461
      5 C5          0.0275    1.3089    0.4346 C.ar      1 <0>        -0.0836
      6 C6          0.0021   -0.0041    0.0020 C.ar      1 <0>        -0.0893
      7 C7         -1.2934   -0.7740    0.0107 C.3       1 <0>        -0.0642
      8 H1         -2.1334   -0.0869    0.1120 H         1 <0>         0.1382
      9 C8         -1.2969   -1.7821    1.1721 C.3       1 <0>         0.1495
     10 H2         -2.1779   -2.4197    1.0986 H         1 <0>         0.0960
     11 O1         -0.1255   -2.5802    1.0967 O.3       1 <0>        -0.3050
     12 C9          0.1551   -3.3416    0.0132 C.ar      1 <0>         0.1212
     13 C10         0.9986   -4.4351    0.1946 C.ar      1 <0>        -0.1141
     14 C11         1.3394   -5.2447   -0.8692 C.ar      1 <0>        -0.1062
     15 C12         0.8443   -4.9772   -2.1372 C.ar      1 <0>         0.0986
     16 C13        -0.0005   -3.8960   -2.3286 C.ar      1 <0>        -0.0901
     17 C14        -0.3494   -3.0850   -1.2568 C.ar      1 <0>        -0.1477
     18 S1         -1.4568   -1.7323   -1.5285 S.3       1 <0>        -0.0841
     19 O2          1.1866   -5.7716   -3.1864 O.3       1 <0>        -0.4915
     20 C15        -1.3198   -1.0400    2.4835 C.ar      1 <0>        -0.1042
     21 C16        -0.1522   -0.5024    2.9927 C.ar      1 <0>        -0.0351
     22 C17        -0.1704    0.1779    4.1949 C.ar      1 <0>        -0.1419
     23 C18        -1.3617    0.3218    4.8912 C.ar      1 <0>         0.1197
     24 C19        -2.5320   -0.2182    4.3779 C.ar      1 <0>        -0.2022
     25 C20        -2.5094   -0.8931    3.1727 C.ar      1 <0>        -0.0591
     26 O3         -1.3822    0.9902    6.0743 O.3       1 <0>        -0.3218
     27 C21        -2.6441    1.0995    6.7359 C.3       1 <0>         0.0275
     28 C22        -2.4698    1.8785    8.0411 C.3       1 <0>        -0.0076
     29 N1         -2.0692    3.2589    7.7377 N.4       1 <0>        -0.3530
     30 C23        -0.8407    3.2181    6.9983 C.3       1 <0>        -0.0091
     31 C24        -0.0048    4.4653    7.0302 C.3       1 <0>        -0.1002
     32 C25         1.0226    4.3835    8.1572 C.3       1 <0>        -0.1174
     33 C26         0.3528    4.7261    9.4835 C.3       1 <0>        -0.0946
     34 C27        -0.1345    6.1760    9.4308 C.3       1 <0>        -0.1145
     35 C28        -1.2324    6.2686    8.3701 C.3       1 <0>        -0.0931
     36 C29        -0.7526    5.7664    7.0250 C.3       1 <0>        -0.1153
     37 C30        -2.4345    5.4476    8.8452 C.3       1 <0>        -0.1252
     38 C31        -2.0276    3.9959    8.9684 C.3       1 <0>         0.0205
     39 C32        -0.7915    3.7824    9.8108 C.3       1 <0>        -0.1149
     40 O4          3.5482    2.1039   -0.0225 O.3       1 <0>        -0.5000
     41 H3          1.1398   -1.6359   -0.7807 H         1 <0>         0.1322
     42 H4          3.2585   -0.3831   -0.7926 H         1 <0>         0.1313
     43 H5          1.2331    3.0424    0.7657 H         1 <0>         0.1291
     44 H6         -0.8807    1.7813    0.7787 H         1 <0>         0.1235
     45 H7          1.3899   -4.6512    1.1778 H         1 <0>         0.1412
     46 H8          1.9942   -6.0894   -0.7144 H         1 <0>         0.1429
     47 H9         -0.3883   -3.6831   -3.3139 H         1 <0>         0.1405
     48 H10         0.5878   -6.5179   -3.3264 H         1 <0>         0.3946
     49 H11         0.7750   -0.6147    2.4504 H         1 <0>         0.1382
     50 H12         0.7420    0.5970    4.5927 H         1 <0>         0.1342
     51 H13        -3.4607   -0.1075    4.9180 H         1 <0>         0.1317
     52 H14        -3.4210   -1.3098    2.7705 H         1 <0>         0.1342
     53 H15        -3.3483    1.6246    6.0906 H         1 <0>         0.0877
     54 H16        -3.0265    0.1028    6.9560 H         1 <0>         0.1122
     55 H17        -3.4123    1.8857    8.5886 H         1 <0>         0.1521
     56 H18        -1.7003    1.4021    8.6486 H         1 <0>         0.1417
     57 H19        -0.2386    2.3964    7.3859 H         1 <0>         0.1307
     58 H20        -1.0783    2.9957    5.9580 H         1 <0>         0.1325
     59 H21         0.5829    4.4537    6.1123 H         1 <0>         0.1002
     60 H22         1.4287    3.3732    8.2057 H         1 <0>         0.0735
     61 H23         1.8298    5.0903    7.9648 H         1 <0>         0.0845
     62 H24         1.0984    4.6512   10.2750 H         1 <0>         0.0868
     63 H25        -0.5355    6.4653   10.4022 H         1 <0>         0.0752
     64 H26         0.6929    6.8331    9.1627 H         1 <0>         0.0781
     65 H27        -1.5422    7.3089    8.2705 H         1 <0>         0.0909
     66 H28        -0.1052    6.5278    6.5900 H         1 <0>         0.0856
     67 H29        -1.6207    5.6559    6.3751 H         1 <0>         0.0627
     68 H30        -2.7668    5.8163    9.8156 H         1 <0>         0.1118
     69 H31        -3.2458    5.5384    8.1229 H         1 <0>         0.0839
     70 H32        -2.8222    3.5520    9.5682 H         1 <0>         0.1111
     71 H33        -0.4477    2.7579    9.6688 H         1 <0>         0.0792
     72 H34        -1.0595    3.9127   10.8593 H         1 <0>         0.1047
     73 H35         3.7178    2.5792   -0.8474 H         1 <0>         0.3955
     74 H36        -2.7771    3.6692    7.1473 H         1 <0>         0.4165
@<TRIPOS>BOND
     1    1    6 ar
     2    1    2 ar
     3    1   41 1
     4    2    3 ar
     5    2   42 1
     6    3    4 ar
     7    3   40 1
     8    4    5 ar
     9    4   43 1
    10    5    6 ar
    11    5   44 1
    12    6    7 1
    13    7    8 1
    14    7   18 1
    15    7    9 1
    16    9   10 1
    17    9   11 1
    18    9   20 1
    19   11   12 1
    20   12   17 ar
    21   12   13 ar
    22   13   14 ar
    23   13   45 1
    24   14   15 ar
    25   14   46 1
    26   15   16 ar
    27   15   19 1
    28   16   17 ar
    29   16   47 1
    30   17   18 1
    31   19   48 1
    32   20   25 ar
    33   20   21 ar
    34   21   22 ar
    35   21   49 1
    36   22   23 ar
    37   22   50 1
    38   23   24 ar
    39   23   26 1
    40   24   25 ar
    41   24   51 1
    42   25   52 1
    43   26   27 1
    44   27   28 1
    45   27   53 1
    46   27   54 1
    47   28   29 1
    48   28   55 1
    49   28   56 1
    50   29   38 1
    51   29   30 1
    52   29   74 1
    53   30   31 1
    54   30   57 1
    55   30   58 1
    56   31   36 1
    57   31   32 1
    58   31   59 1
    59   32   33 1
    60   32   60 1
    61   32   61 1
    62   33   39 1
    63   33   34 1
    64   33   62 1
    65   34   35 1
    66   34   63 1
    67   34   64 1
    68   35   36 1
    69   35   37 1
    70   35   65 1
    71   36   66 1
    72   36   67 1
    73   37   38 1
    74   37   68 1
    75   37   69 1
    76   38   39 1
    77   38   70 1
    78   39   71 1
    79   39   72 1
    80   40   73 1
@<TRIPOS>MOLECULE
CHEMBL188516
   33    36     0     0     0
SMALL
USER_CHARGES

@<TRIPOS>ATOM
      1 C1         -0.0162    1.3431    0.0094 C.2       1 <0>        -0.2133
      2 C2          1.3256    1.7743   -0.0011 C.2       1 <0>        -0.1768
      3 C3          2.0968    0.6543   -0.0144 C.2       1 <0>         0.0114
      4 O1          1.2803   -0.4169   -0.0124 O.3       1 <0>        -0.1655
      5 C4          0.0021   -0.0041    0.0020 C.2       1 <0>        -0.0270
      6 C5          3.5735    0.6187   -0.0292 C.ar      1 <0>         0.0284
      7 C6          4.2833    1.3853   -0.9516 C.ar      1 <0>        -0.0913
      8 C7          5.6710    1.3535   -0.9674 C.ar      1 <0>         0.1151
      9 C8          6.3646    0.5624   -0.0700 C.ar      1 <0>        -0.0789
     10 C9          5.6681   -0.2126    0.8619 C.ar      1 <0>         0.0476
     11 C10         4.2665   -0.1802    0.8864 C.ar      1 <0>         0.0208
     12 O2          3.8812   -1.0112    1.8802 O.3       1 <0>        -0.1980
     13 C11         4.9880   -1.5279    2.4465 C.2       1 <0>         0.3049
     14 N1          6.0558   -1.0666    1.8445 N.2       1 <0>        -0.4679
     15 C12         4.9964   -2.4839    3.5724 C.ar      1 <0>        -0.0476
     16 C13         3.7922   -2.9230    4.1270 C.ar      1 <0>        -0.0606
     17 C14         3.8043   -3.8148    5.1773 C.ar      1 <0>        -0.1488
     18 C15         5.0122   -4.2771    5.6845 C.ar      1 <0>         0.1379
     19 C16         6.2122   -3.8427    5.1356 C.ar      1 <0>        -0.1493
     20 C17         6.2085   -2.9555    4.0814 C.ar      1 <0>        -0.0428
     21 O3          5.0199   -5.1556    6.7200 O.3       1 <0>        -0.4965
     22 O4          6.3532    2.1052   -1.8721 O.3       1 <0>        -0.4862
     23 H1         -0.8931    1.9733    0.0252 H         1 <0>         0.1545
     24 H2          1.6739    2.7965    0.0006 H         1 <0>         0.1538
     25 H3         -0.8667   -0.6456    0.0074 H         1 <0>         0.2077
     26 H4          3.7515    2.0064   -1.6573 H         1 <0>         0.1548
     27 H5          7.4443    0.5432   -0.0892 H         1 <0>         0.1496
     28 H6          2.8528   -2.5638    3.7335 H         1 <0>         0.1384
     29 H7          2.8736   -4.1545    5.6070 H         1 <0>         0.1407
     30 H8          7.1491   -4.2042    5.5329 H         1 <0>         0.1423
     31 H9          7.1417   -2.6217    3.6523 H         1 <0>         0.1466
     32 H10         5.0043   -6.0836    6.4486 H         1 <0>         0.3984
     33 H11         6.5724    2.9937   -1.5597 H         1 <0>         0.3973
@<TRIPOS>BOND
     1    1    5 2
     2    1    2 1
     3    1   23 1
     4    2    3 2
     5    2   24 1
     6    3    4 1
     7    3    6 1
     8    4    5 1
     9    5   25 1
    10    6   11 ar
    11    6    7 ar
    12    7    8 ar
    13    7   26 1
    14    8    9 ar
    15    8   22 1
    16    9   10 ar
    17    9   27 1
    18   10   14 1
    19   10   11 ar
    20   11   12 1
    21   12   13 1
    22   13   14 2
    23   13   15 1
    24   15   20 ar
    25   15   16 ar
    26   16   17 ar
    27   16   28 1
    28   17   18 ar
    29   17   29 1
    30   18   19 ar
    31   18   21 1
    32   19   20 ar
    33   19   30 1
    34   20   31 1
    35   21   32 1
    36   22   33 1
@<TRIPOS>MOLECULE
CHEMBL106611
   55    57     0     0     0
SMALL
USER_CHARGES

@<TRIPOS>ATOM
      1 C1         -0.0167    1.3781    0.0096 C.ar      1 <0>        -0.1274
      2 C2          1.1709    2.0855    0.0021 C.ar      1 <0>        -0.1187
      3 C3          2.3773    1.4107   -0.0130 C.ar      1 <0>        -0.1162
      4 C4          2.3960    0.0285   -0.0201 C.ar      1 <0>        -0.0776
      5 C5          1.2084   -0.6789   -0.0117 C.ar      1 <0>        -0.1180
      6 C6          0.0021   -0.0041    0.0020 C.ar      1 <0>        -0.1191
      7 C7          3.7112   -0.7071   -0.0376 C.3       1 <0>        -0.0782
      8 C8          4.1714   -0.9633    1.3989 C.3       1 <0>        -0.0899
      9 C9          5.4865   -1.6989    1.3815 C.2       1 <0>        -0.1201
     10 C10         6.5410   -1.2003    2.0378 C.2       1 <0>        -0.0548
     11 C11         6.4153    0.0758    2.7820 C.ar      1 <0>        -0.0423
     12 C12         7.1374    1.1967    2.3739 C.ar      1 <0>        -0.0858
     13 C13         7.0178    2.3822    3.0679 C.ar      1 <0>        -0.1424
     14 C14         6.1799    2.4604    4.1722 C.ar      1 <0>         0.1022
     15 C15         5.4599    1.3460    4.5814 C.ar      1 <0>        -0.1451
     16 C16         5.5703    0.1593    3.8880 C.ar      1 <0>        -0.0904
     17 O1          6.0647    3.6299    4.8542 O.3       1 <0>        -0.5005
     18 C17         7.8352   -1.9242    2.0206 C.ar      1 <0>        -0.0099
     19 C18         8.3528   -2.4593    3.1996 C.ar      1 <0>        -0.1484
     20 C19         9.5572   -3.1330    3.1808 C.ar      1 <0>        -0.0781
     21 C20        10.2536   -3.2790    1.9954 C.ar      1 <0>        -0.2094
     22 C21         9.7455   -2.7494    0.8173 C.ar      1 <0>         0.1405
     23 C22         8.5345   -2.0766    0.8257 C.ar      1 <0>        -0.1444
     24 O2         10.4335   -2.8954   -0.3456 O.3       1 <0>        -0.3116
     25 C23        11.6723   -3.6050   -0.2817 C.3       1 <0>         0.0587
     26 C24        12.2969   -3.6671   -1.6771 C.3       1 <0>        -0.0919
     27 C25        13.6232   -4.4269   -1.6087 C.3       1 <0>        -0.1806
     28 C26        14.2384   -4.4881   -2.9831 C.2       1 <0>         0.4911
     29 O3         13.6688   -3.9720   -3.9295 O.co2     1 <0>        -0.6955
     30 O4         15.3057   -5.0538   -3.1485 O.co2     1 <0>        -0.7045
     31 H1         -0.9591    1.9053    0.0259 H         1 <0>         0.1191
     32 H2          1.1563    3.1654    0.0076 H         1 <0>         0.1199
     33 H3          3.3051    1.9634   -0.0196 H         1 <0>         0.1204
     34 H4          1.2231   -1.7588   -0.0176 H         1 <0>         0.1213
     35 H5         -0.9258   -0.5567    0.0082 H         1 <0>         0.1202
     36 H6          3.5884   -1.6586   -0.5549 H         1 <0>         0.0751
     37 H7          4.4573   -0.1052   -0.5563 H         1 <0>         0.0752
     38 H8          4.2941   -0.0118    1.9163 H         1 <0>         0.0778
     39 H9          3.4252   -1.5652    1.9176 H         1 <0>         0.0751
     40 H10         5.5781   -2.6285    0.8394 H         1 <0>         0.1221
     41 H11         7.7898    1.1362    1.5154 H         1 <0>         0.1290
     42 H12         7.5769    3.2507    2.7523 H         1 <0>         0.1291
     43 H13         4.8095    1.4099    5.4412 H         1 <0>         0.1279
     44 H14         5.0065   -0.7060    4.2041 H         1 <0>         0.1270
     45 H15         5.3623    4.2084    4.5270 H         1 <0>         0.3890
     46 H16         7.8115   -2.3463    4.1273 H         1 <0>         0.1198
     47 H17         9.9569   -3.5469    4.0947 H         1 <0>         0.1236
     48 H18        11.1960   -3.8064    1.9861 H         1 <0>         0.1291
     49 H19         8.1359   -1.6676   -0.0909 H         1 <0>         0.1305
     50 H20        12.3514   -3.0900    0.3977 H         1 <0>         0.0579
     51 H21        11.4930   -4.6169    0.0815 H         1 <0>         0.0580
     52 H22        11.6178   -4.1821   -2.3565 H         1 <0>         0.0715
     53 H23        12.4761   -2.6552   -2.0403 H         1 <0>         0.0714
     54 H24        14.3023   -3.9119   -0.9293 H         1 <0>         0.0591
     55 H25        13.4439   -5.4388   -1.2454 H         1 <0>         0.0591
@<TRIPOS>BOND
     1    1    6 ar
     2    1    2 ar
     3    1   31 1
     4    2    3 ar
     5    2   32 1
     6    3    4 ar
     7    3   33 1
     8    4    5 ar
     9    4    7 1
    10    5    6 ar
    11    5   34 1
    12    6   35 1
    13    7    8 1
    14    7   36 1
    15    7   37 1
    16    8    9 1
    17    8   38 1
    18    8   39 1
    19    9   10 2
    20    9   40 1
    21   10   11 1
    22   10   18 1
    23   11   16 ar
    24   11   12 ar
    25   12   13 ar
    26   12   41 1
    27   13   14 ar
    28   13   42 1
    29   14   15 ar
    30   14   17 1
    31   15   16 ar
    32   15   43 1
    33   16   44 1
    34   17   45 1
    35   18   23 ar
    36   18   19 ar
    37   19   20 ar
    38   19   46 1
    39   20   21 ar
    40   20   47 1
    41   21   22 ar
    42   21   48 1
    43   22   23 ar
    44   22   24 1
    45   23   49 1
    46   24   25 1
    47   25   26 1
    48   25   50 1
    49   25   51 1
    50   26   27 1
    51   26   52 1
    52   26   53 1
    53   27   28 1
    54   27   54 1
    55   27   55 1
    56   28   29 2
    57   28   30 1
@<TRIPOS>MOLECULE
CHEMBL366928
   67    72     0     0     0
SMALL
USER_CHARGES

@<TRIPOS>ATOM
      1 C1         -1.3661   -1.0325    3.5170 C.ar      1 <0>        -0.0729
      2 C2         -0.9889   -1.3553    4.8018 C.ar      1 <0>        -0.1469
      3 C3         -0.8421   -2.6868    5.1713 C.ar      1 <0>         0.1270
      4 C4         -1.0750   -3.6983    4.2475 C.ar      1 <0>        -0.1394
      5 C5         -1.4527   -3.3850    2.9605 C.ar      1 <0>        -0.0721
      6 C6         -1.6015   -2.0468    2.5842 C.ar      1 <0>        -0.0426
      7 C7         -2.0055   -1.7063    1.2078 C.2       1 <0>        -0.0510
      8 C8         -1.5072   -2.2113    0.0140 C.2       1 <0>        -0.1634
      9 C9         -2.0808   -1.7079   -1.2365 C.ar      1 <0>        -0.0734
     10 C10        -1.7404   -2.0674   -2.5602 C.ar      1 <0>        -0.0609
     11 C11        -2.3796   -1.4955   -3.6286 C.ar      1 <0>        -0.1370
     12 C12        -3.3811   -0.5462   -3.4456 C.ar      1 <0>         0.1371
     13 C13        -3.7371   -0.1738   -2.1594 C.ar      1 <0>        -0.1006
     14 C14        -3.0965   -0.7461   -1.0805 C.ar      1 <0>        -0.1024
     15 S1         -3.2560   -0.5537    0.6763 S.3       1 <0>         0.0943
     16 O1         -4.0035    0.0103   -4.5183 O.3       1 <0>        -0.4912
     17 C15        -0.4422   -3.2145    0.0054 C.2       1 <0>         0.4635
     18 O2         -0.7215   -4.3988   -0.0535 O.2       1 <0>        -0.4366
     19 C16         0.9708   -2.7915    0.0682 C.ar      1 <0>        -0.2000
     20 C17         1.2976   -1.4329    0.0287 C.ar      1 <0>        -0.0100
     21 C18         2.6157   -1.0418    0.0879 C.ar      1 <0>        -0.2006
     22 C19         3.6231   -1.9975    0.1871 C.ar      1 <0>         0.2339
     23 C20         3.3009   -3.3513    0.2267 C.ar      1 <0>        -0.2002
     24 C21         1.9843   -3.7485    0.1732 C.ar      1 <0>        -0.0075
     25 N1          4.9545   -1.5990    0.2463 N.pl3     1 <0>        -0.6378
     26 C22         6.0420   -2.5894    0.2289 C.3       1 <0>         0.0970
     27 C23         7.0568   -2.1778   -0.8429 C.3       1 <0>        -0.0234
     28 N2          7.4968   -0.7990   -0.5951 N.4       1 <0>        -0.3793
     29 C24         6.3640    0.1226   -0.7489 C.3       1 <0>        -0.0272
     30 C25         5.3151   -0.1748    0.3218 C.3       1 <0>         0.0963
     31 C26         8.5495   -0.4427   -1.5557 C.3       1 <0>         0.0194
     32 C27         9.7803   -1.3499   -1.3515 C.3       1 <0>        -0.1422
     33 C28        10.9883   -0.4128   -1.5996 C.3       1 <0>        -0.1245
     34 C29        10.5229    0.9205   -0.9634 C.3       1 <0>        -0.1304
     35 C30         9.0216    1.0009   -1.3090 C.3       1 <0>        -0.1446
     36 O3         -0.4696   -3.0004    6.4389 O.3       1 <0>        -0.4982
     37 H1         -1.4843    0.0025    3.2320 H         1 <0>         0.1338
     38 H2         -0.8065   -0.5724    5.5230 H         1 <0>         0.1372
     39 H3         -0.9594   -4.7318    4.5390 H         1 <0>         0.1374
     40 H4         -1.6331   -4.1718    2.2430 H         1 <0>         0.1342
     41 H5         -0.9669   -2.8014   -2.7317 H         1 <0>         0.1274
     42 H6         -2.1011   -1.7862   -4.6308 H         1 <0>         0.1386
     43 H7         -4.5122    0.5617   -2.0025 H         1 <0>         0.1426
     44 H8         -4.7894   -0.4713   -4.8106 H         1 <0>         0.3997
     45 H9          0.5165   -0.6911   -0.0486 H         1 <0>         0.1333
     46 H10         2.8689    0.0077    0.0570 H         1 <0>         0.1300
     47 H11         4.0847   -4.0903    0.3033 H         1 <0>         0.1310
     48 H12         1.7347   -4.7987    0.2081 H         1 <0>         0.1399
     49 H13         6.5291   -2.6158    1.2036 H         1 <0>         0.0909
     50 H14         5.6376   -3.5734   -0.0084 H         1 <0>         0.1292
     51 H15         7.9170   -2.8462   -0.8047 H         1 <0>         0.1419
     52 H16         6.5917   -2.2397   -1.8267 H         1 <0>         0.1335
     53 H17         6.7137    1.1494   -0.6415 H         1 <0>         0.1434
     54 H18         5.9198   -0.0088   -1.7355 H         1 <0>         0.1337
     55 H19         4.4302    0.4369    0.1460 H         1 <0>         0.1295
     56 H20         5.7275    0.0469    1.3061 H         1 <0>         0.0906
     57 H21         8.1749   -0.5441   -2.5743 H         1 <0>         0.1395
     58 H22         9.8024   -1.7394   -0.3337 H         1 <0>         0.0869
     59 H23         9.7764   -2.1665   -2.0735 H         1 <0>         0.0981
     60 H24        11.8793   -0.7900   -1.0977 H         1 <0>         0.0891
     61 H25        11.1683   -0.2891   -2.6675 H         1 <0>         0.0837
     62 H26        10.6649    0.8977    0.1171 H         1 <0>         0.0777
     63 H27        11.0609    1.7608   -1.4021 H         1 <0>         0.0879
     64 H28         8.8770    1.5999   -2.2081 H         1 <0>         0.1032
     65 H29         8.4696    1.4371   -0.4764 H         1 <0>         0.0849
     66 H30        -1.2048   -3.0442    7.0655 H         1 <0>         0.3984
     67 H31         7.8623   -0.7272    0.3426 H         1 <0>         0.4205
@<TRIPOS>BOND
     1    1    6 ar
     2    1    2 ar
     3    1   37 1
     4    2    3 ar
     5    2   38 1
     6    3    4 ar
     7    3   36 1
     8    4    5 ar
     9    4   39 1
    10    5    6 ar
    11    5   40 1
    12    6    7 1
    13    7   15 1
    14    7    8 2
    15    8    9 1
    16    8   17 1
    17    9   14 ar
    18    9   10 ar
    19   10   11 ar
    20   10   41 1
    21   11   12 ar
    22   11   42 1
    23   12   13 ar
    24   12   16 1
    25   13   14 ar
    26   13   43 1
    27   14   15 1
    28   16   44 1
    29   17   18 2
    30   17   19 1
    31   19   24 ar
    32   19   20 ar
    33   20   21 ar
    34   20   45 1
    35   21   22 ar
    36   21   46 1
    37   22   23 ar
    38   22   25 1
    39   23   24 ar
    40   23   47 1
    41   24   48 1
    42   25   30 1
    43   25   26 1
    44   26   27 1
    45   26   49 1
    46   26   50 1
    47   27   28 1
    48   27   51 1
    49   27   52 1
    50   28   29 1
    51   28   31 1
    52   28   67 1
    53   29   30 1
    54   29   53 1
    55   29   54 1
    56   30   55 1
    57   30   56 1
    58   31   35 1
    59   31   32 1
    60   31   57 1
    61   32   33 1
    62   32   58 1
    63   32   59 1
    64   33   34 1
    65   33   60 1
    66   33   61 1
    67   34   35 1
    68   34   62 1
    69   34   63 1
    70   35   64 1
    71   35   65 1
    72   36   66 1
@<TRIPOS>MOLECULE
CHEMBL180873
   68    73     0     0     0
SMALL
USER_CHARGES

@<TRIPOS>ATOM
      1 C1          1.4663    0.9902   -0.4981 C.3       1 <0>        -0.1180
      2 C2          0.6823   -0.2851   -0.3248 C.ar      1 <0>        -0.0886
      3 C3         -0.0847   -0.7713   -1.3690 C.ar      1 <0>        -0.0951
      4 C4         -0.8070   -1.9414   -1.2183 C.ar      1 <0>        -0.1206
      5 C5         -0.7673   -2.6313   -0.0240 C.ar      1 <0>        -0.1046
      6 C6          0.0041   -2.1464    1.0330 C.ar      1 <0>        -0.1297
      7 C7          0.7352   -0.9681    0.8724 C.ar      1 <0>        -0.0641
      8 C8          0.0510   -2.8802    2.3156 C.2       1 <0>         0.5636
      9 O1          0.1648   -2.2704    3.3609 O.2       1 <0>        -0.5297
     10 N1         -0.0326   -4.2254    2.3259 N.am      1 <0>        -0.6078
     11 C9         -0.0441   -4.9837    1.0670 C.3       1 <0>         0.0731
     12 C10         1.0876   -6.0181    1.1077 C.3       1 <0>         0.1014
     13 N2          1.0069   -6.7528    2.3779 N.pl3     1 <0>        -0.6190
     14 C11         1.0184   -5.9945    3.6367 C.3       1 <0>         0.1031
     15 C12        -0.1077   -4.9605    3.5963 C.3       1 <0>         0.0962
     16 C13         0.9207   -8.1411    2.3884 C.ar      1 <0>         0.2567
     17 C14         1.0444   -8.8538    1.1990 C.ar      1 <0>        -0.2147
     18 C15         0.9600  -10.2274    1.2062 C.ar      1 <0>        -0.0038
     19 C16         0.7499  -10.9070    2.4096 C.ar      1 <0>        -0.2268
     20 C17         0.6261  -10.1884    3.6023 C.ar      1 <0>        -0.0076
     21 C18         0.7167   -8.8153    3.5893 C.ar      1 <0>        -0.2138
     22 C19         0.6584  -12.3803    2.4208 C.2       1 <0>         0.4653
     23 O2          0.6721  -12.9995    1.3718 O.2       1 <0>        -0.4476
     24 C20         0.5512  -13.0970    3.6918 C.2       1 <0>        -0.1537
     25 C21         1.7458  -13.4516    4.4622 C.ar      1 <0>        -0.0712
     26 C22         3.0982  -13.1899    4.1459 C.ar      1 <0>        -0.0571
     27 C23         4.1049  -13.5945    4.9825 C.ar      1 <0>        -0.1383
     28 C24         3.8295  -14.2732    6.1663 C.ar      1 <0>         0.1340
     29 C25         2.5131  -14.5438    6.5035 C.ar      1 <0>        -0.1021
     30 C26         1.4960  -14.1391    5.6646 C.ar      1 <0>        -0.1021
     31 S1         -0.2711  -14.2871    5.7295 S.3       1 <0>         0.0841
     32 C27        -0.6865  -13.4572    4.2086 C.2       1 <0>        -0.0541
     33 C28        -2.0228  -13.2131    3.6356 C.ar      1 <0>        -0.0408
     34 C29        -2.2819  -13.5333    2.2996 C.ar      1 <0>        -0.0695
     35 C30        -3.5319  -13.3034    1.7686 C.ar      1 <0>        -0.1401
     36 C31        -4.5343  -12.7537    2.5584 C.ar      1 <0>         0.1241
     37 C32        -4.2812  -12.4334    3.8866 C.ar      1 <0>        -0.1477
     38 C33        -3.0362  -12.6660    4.4281 C.ar      1 <0>        -0.0732
     39 O3         -5.7650  -12.5284    2.0305 O.3       1 <0>        -0.4975
     40 O4          4.8421  -14.6670    6.9832 O.3       1 <0>        -0.4910
     41 H1          2.4587    0.7570   -0.8839 H         1 <0>         0.0741
     42 H2          0.9477    1.6430   -1.2003 H         1 <0>         0.0705
     43 H3          1.5596    1.4930    0.4644 H         1 <0>         0.0700
     44 H4         -0.1197   -0.2347   -2.3056 H         1 <0>         0.1288
     45 H5         -1.4036   -2.3156   -2.0371 H         1 <0>         0.1315
     46 H6         -1.3323   -3.5443    0.0926 H         1 <0>         0.1350
     47 H7          1.3376   -0.5899    1.6851 H         1 <0>         0.1323
     48 H8         -1.0013   -5.4929    0.9555 H         1 <0>         0.0791
     49 H9          0.1114   -4.3041    0.2292 H         1 <0>         0.1159
     50 H10         0.9779   -6.7132    0.2753 H         1 <0>         0.1007
     51 H11         2.0498   -5.5105    1.0392 H         1 <0>         0.0728
     52 H12         0.8629   -6.6741    4.4746 H         1 <0>         0.1005
     53 H13         1.9756   -5.4852    3.7483 H         1 <0>         0.0730
     54 H14         0.0058   -4.2655    4.4283 H         1 <0>         0.1068
     55 H15        -1.0695   -5.4681    3.6689 H         1 <0>         0.0756
     56 H16         1.2063   -8.3282    0.2695 H         1 <0>         0.1302
     57 H17         1.0557  -10.7797    0.2831 H         1 <0>         0.1334
     58 H18         0.4633  -10.7106    4.5336 H         1 <0>         0.1257
     59 H19         0.6252   -8.2598    4.5110 H         1 <0>         0.1296
     60 H20         3.3410  -12.6651    3.2338 H         1 <0>         0.1295
     61 H21         5.1306  -13.3834    4.7186 H         1 <0>         0.1379
     62 H22         2.2847  -15.0698    7.4186 H         1 <0>         0.1406
     63 H23        -1.5032  -13.9599    1.6848 H         1 <0>         0.1375
     64 H24        -3.7330  -13.5505    0.7366 H         1 <0>         0.1363
     65 H25        -5.0631  -12.0056    4.4966 H         1 <0>         0.1361
     66 H26        -2.8418  -12.4215    5.4620 H         1 <0>         0.1334
     67 H27        -6.3972  -13.2430    2.1876 H         1 <0>         0.3951
     68 H28         5.0874  -14.0109    7.6499 H         1 <0>         0.3963
@<TRIPOS>BOND
     1    1    2 1
     2    1   41 1
     3    1   42 1
     4    1   43 1
     5    2    7 ar
     6    2    3 ar
     7    3    4 ar
     8    3   44 1
     9    4    5 ar
    10    4   45 1
    11    5    6 ar
    12    5   46 1
    13    6    7 ar
    14    6    8 1
    15    7   47 1
    16    8    9 2
    17    8   10 am
    18   10   15 1
    19   10   11 1
    20   11   12 1
    21   11   48 1
    22   11   49 1
    23   12   13 1
    24   12   50 1
    25   12   51 1
    26   13   14 1
    27   13   16 1
    28   14   15 1
    29   14   52 1
    30   14   53 1
    31   15   54 1
    32   15   55 1
    33   16   21 ar
    34   16   17 ar
    35   17   18 ar
    36   17   56 1
    37   18   19 ar
    38   18   57 1
    39   19   20 ar
    40   19   22 1
    41   20   21 ar
    42   20   58 1
    43   21   59 1
    44   22   23 2
    45   22   24 1
    46   24   32 2
    47   24   25 1
    48   25   30 ar
    49   25   26 ar
    50   26   27 ar
    51   26   60 1
    52   27   28 ar
    53   27   61 1
    54   28   29 ar
    55   28   40 1
    56   29   30 ar
    57   29   62 1
    58   30   31 1
    59   31   32 1
    60   32   33 1
    61   33   38 ar
    62   33   34 ar
    63   34   35 ar
    64   34   63 1
    65   35   36 ar
    66   35   64 1
    67   36   37 ar
    68   36   39 1
    69   37   38 ar
    70   37   65 1
    71   38   66 1
    72   39   67 1
    73   40   68 1
@<TRIPOS>MOLECULE
CHEMBL210699
   62    67     0     0     0
SMALL
USER_CHARGES

@<TRIPOS>ATOM
      1 C1          1.4130   -0.8906    0.0386 C.ar      1 <0>        -0.0405
      2 C2          2.5653   -0.1296    0.0760 C.ar      1 <0>        -0.1474
      3 C3          2.5102    1.2252   -0.2174 C.ar      1 <0>         0.1487
      4 C4          1.2974    1.8123   -0.5478 C.ar      1 <0>        -0.2117
      5 C5          0.1479    1.0469   -0.5838 C.ar      1 <0>        -0.0671
      6 C6          0.2055   -0.3031   -0.2909 C.ar      1 <0>        -0.1271
      7 C7         -1.0500   -1.1358   -0.3314 C.3       1 <0>         0.1948
      8 C8         -1.2854   -1.7427    1.0222 C.2       1 <0>        -0.0924
      9 C9         -1.9429   -2.9149    1.1357 C.2       1 <0>        -0.1058
     10 C10        -2.2348   -3.4930    2.4914 C.3       1 <0>         0.1145
     11 O1         -1.2250   -3.1185    3.4280 O.3       1 <0>        -0.3057
     12 C11        -0.8252   -1.8214    3.4483 C.ar      1 <0>         0.1503
     13 C12        -0.8203   -1.0842    2.2521 C.ar      1 <0>        -0.1222
     14 C13        -0.3859    0.2392    2.2489 C.ar      1 <0>        -0.0613
     15 C14         0.0249    0.8261    3.4285 C.ar      1 <0>        -0.1710
     16 C15         0.0042    0.1023    4.6141 C.ar      1 <0>         0.1484
     17 C16        -0.4197   -1.2201    4.6237 C.ar      1 <0>        -0.1725
     18 O2          0.4019    0.6920    5.7717 O.3       1 <0>        -0.4945
     19 C17        -2.3392   -3.6150   -0.0958 C.ar      1 <0>        -0.1266
     20 C18        -3.2248   -4.6903   -0.0684 C.ar      1 <0>        -0.0569
     21 C19        -3.5837   -5.3093   -1.2480 C.ar      1 <0>        -0.1690
     22 C20        -3.0666   -4.8628   -2.4581 C.ar      1 <0>         0.1480
     23 C21        -2.1791   -3.7958   -2.4928 C.ar      1 <0>        -0.1679
     24 C22        -1.8052   -3.1730   -1.3177 C.ar      1 <0>         0.1517
     25 O3         -0.9072   -2.1549   -1.3212 O.3       1 <0>        -0.2974
     26 O4         -3.4322   -5.4743   -3.6150 O.3       1 <0>        -0.4939
     27 O5          3.6423    1.9761   -0.1809 O.3       1 <0>        -0.2937
     28 C23         3.5106    3.3641   -0.4944 C.3       1 <0>         0.0651
     29 C24         4.8800    4.0401   -0.4015 C.3       1 <0>         0.0541
     30 N1          5.7776    3.4694   -1.4147 N.3       1 <0>        -0.5305
     31 C25         7.1848    3.7315   -1.0796 C.3       1 <0>         0.0187
     32 C26         8.0849    3.0700   -2.1267 C.3       1 <0>         0.0627
     33 O6          7.7372    3.5597   -3.4246 O.3       1 <0>        -0.3851
     34 C27         6.3736    3.3208   -3.7838 C.3       1 <0>         0.0635
     35 C28         5.4562    3.9847   -2.7535 C.3       1 <0>         0.0144
     36 H1          1.4560   -1.9462    0.2626 H         1 <0>         0.1274
     37 H2          3.5081   -0.5888    0.3338 H         1 <0>         0.1340
     38 H3          1.2519    2.8669   -0.7763 H         1 <0>         0.1316
     39 H4         -0.7964    1.5035   -0.8409 H         1 <0>         0.1304
     40 H5         -1.8954   -0.4987   -0.5909 H         1 <0>         0.0890
     41 H6         -3.2004   -3.1250    2.8383 H         1 <0>         0.0783
     42 H7         -2.2709   -4.5799    2.4179 H         1 <0>         0.1203
     43 H8         -0.3705    0.8032    1.3280 H         1 <0>         0.1487
     44 H9          0.3634    1.8517    3.4299 H         1 <0>         0.1322
     45 H10        -0.4330   -1.7771    5.5489 H         1 <0>         0.1409
     46 H11        -0.3118    1.1298    6.2554 H         1 <0>         0.3952
     47 H12        -3.6278   -5.0378    0.8714 H         1 <0>         0.1357
     48 H13        -4.2688   -6.1440   -1.2309 H         1 <0>         0.1369
     49 H14        -1.7814   -3.4534   -3.4368 H         1 <0>         0.1424
     50 H15        -4.2154   -5.0902   -4.0323 H         1 <0>         0.3965
     51 H16         3.1198    3.4726   -1.5061 H         1 <0>         0.0634
     52 H17         2.8254    3.8327    0.2120 H         1 <0>         0.0685
     53 H18         4.7694    5.1104   -0.5756 H         1 <0>         0.0620
     54 H19         5.3003    3.8749    0.5906 H         1 <0>         0.0889
     55 H20         7.3633    4.8067   -1.0732 H         1 <0>         0.0437
     56 H21         7.4075    3.3191   -0.0955 H         1 <0>         0.0888
     57 H22         9.1269    3.3095   -1.9144 H         1 <0>         0.0995
     58 H23         7.9456    1.9894   -2.0960 H         1 <0>         0.0617
     59 H24         6.1780    3.7416   -4.7701 H         1 <0>         0.0988
     60 H25         6.1846    2.2474   -3.8013 H         1 <0>         0.0612
     61 H26         4.4171    3.7572   -2.9913 H         1 <0>         0.0847
     62 H27         5.6071    5.0641   -2.7739 H         1 <0>         0.0445
@<TRIPOS>BOND
     1    1    6 ar
     2    1    2 ar
     3    1   36 1
     4    2    3 ar
     5    2   37 1
     6    3    4 ar
     7    3   27 1
     8    4    5 ar
     9    4   38 1
    10    5    6 ar
    11    5   39 1
    12    6    7 1
    13    7   25 1
    14    7    8 1
    15    7   40 1
    16    8   13 1
    17    8    9 2
    18    9   10 1
    19    9   19 1
    20   10   11 1
    21   10   41 1
    22   10   42 1
    23   11   12 1
    24   12   17 ar
    25   12   13 ar
    26   13   14 ar
    27   14   15 ar
    28   14   43 1
    29   15   16 ar
    30   15   44 1
    31   16   17 ar
    32   16   18 1
    33   17   45 1
    34   18   46 1
    35   19   24 ar
    36   19   20 ar
    37   20   21 ar
    38   20   47 1
    39   21   22 ar
    40   21   48 1
    41   22   23 ar
    42   22   26 1
    43   23   24 ar
    44   23   49 1
    45   24   25 1
    46   26   50 1
    47   27   28 1
    48   28   29 1
    49   28   51 1
    50   28   52 1
    51   29   30 1
    52   29   53 1
    53   29   54 1
    54   30   35 1
    55   30   31 1
    56   31   32 1
    57   31   55 1
    58   31   56 1
    59   32   33 1
    60   32   57 1
    61   32   58 1
    62   33   34 1
    63   34   35 1
    64   34   59 1
    65   34   60 1
    66   35   61 1
    67   35   62 1
@<TRIPOS>MOLECULE
CHEMBL210699__1
   63    68     0     0     0
SMALL
USER_CHARGES

@<TRIPOS>ATOM
      1 C1          0.1917    0.9541    0.8424 C.ar      1 <0>        -0.0396
      2 C2          1.3344    1.7190    0.7101 C.ar      1 <0>        -0.1356
      3 C3          2.5459    1.1094    0.4181 C.ar      1 <0>         0.1243
      4 C4          2.6065   -0.2675    0.2596 C.ar      1 <0>        -0.2017
      5 C5          1.4609   -1.0280    0.3929 C.ar      1 <0>        -0.0670
      6 C6          0.2547   -0.4180    0.6839 C.ar      1 <0>        -0.0997
      7 C7         -0.9933   -1.2501    0.8292 C.3       1 <0>         0.1915
      8 C8         -2.0084   -0.8010   -0.1825 C.2       1 <0>        -0.1074
      9 C9         -3.3260   -0.9402    0.0698 C.2       1 <0>        -0.0903
     10 C10        -4.3423   -0.5497   -0.9658 C.3       1 <0>         0.1108
     11 O1         -3.8537    0.5201   -1.7744 O.3       1 <0>        -0.3037
     12 C11        -2.5829    0.4342   -2.2437 C.ar      1 <0>         0.1525
     13 C12        -1.6048   -0.2101   -1.4673 C.ar      1 <0>        -0.1214
     14 C13        -0.2895   -0.2824   -1.9199 C.ar      1 <0>        -0.0688
     15 C14         0.0441    0.2686   -3.1404 C.ar      1 <0>        -0.1727
     16 C15        -0.9264    0.8910   -3.9155 C.ar      1 <0>         0.1496
     17 C16        -2.2381    0.9742   -3.4673 C.ar      1 <0>        -0.1694
     18 O2         -0.5898    1.4222   -5.1199 O.3       1 <0>        -0.4955
     19 C17        -3.7342   -1.4568    1.3851 C.ar      1 <0>        -0.1314
     20 C18        -5.0449   -1.8581    1.6344 C.ar      1 <0>        -0.0532
     21 C19        -5.3829   -2.3525    2.8773 C.ar      1 <0>        -0.1657
     22 C20        -4.4217   -2.4515    3.8760 C.ar      1 <0>         0.1532
     23 C21        -3.1150   -2.0481    3.6371 C.ar      1 <0>        -0.1673
     24 C22        -2.7659   -1.5433    2.3993 C.ar      1 <0>         0.1498
     25 O3         -1.5052   -1.1035    2.1541 O.3       1 <0>        -0.2995
     26 O4         -4.7630   -2.9469    5.0943 O.3       1 <0>        -0.4929
     27 O5          3.6713    1.8598    0.2870 O.3       1 <0>        -0.3268
     28 C23         4.8831    1.1648   -0.0142 C.3       1 <0>         0.0244
     29 C24         6.0330    2.1681   -0.1229 C.3       1 <0>        -0.0003
     30 N1          6.2499    2.8076    1.1817 N.4       1 <0>        -0.3873
     31 C25         7.2521    3.8733    1.0444 C.3       1 <0>        -0.0436
     32 C26         7.4761    4.5382    2.4049 C.3       1 <0>         0.0353
     33 O6          7.8883    3.5482    3.3514 O.3       1 <0>        -0.3558
     34 C27         6.9547    2.4752    3.5028 C.3       1 <0>         0.0369
     35 C28         6.7297    1.8065    2.1444 C.3       1 <0>        -0.0498
     36 H1         -0.7508    1.4277    1.0742 H         1 <0>         0.1354
     37 H2          1.2846    2.7908    0.8336 H         1 <0>         0.1366
     38 H3          3.5483   -0.7444    0.0319 H         1 <0>         0.1332
     39 H4          1.5076   -2.1000    0.2696 H         1 <0>         0.1380
     40 H5         -0.7493   -2.2976    0.6521 H         1 <0>         0.0913
     41 H6         -4.5572   -1.4098   -1.5999 H         1 <0>         0.0822
     42 H7         -5.2589   -0.2337   -0.4679 H         1 <0>         0.1239
     43 H8          0.4655   -0.7669   -1.3186 H         1 <0>         0.1431
     44 H9          1.0631    0.2155   -3.4943 H         1 <0>         0.1301
     45 H10        -2.9876    1.4597   -4.0748 H         1 <0>         0.1434
     46 H11        -0.6745    0.8050   -5.8595 H         1 <0>         0.3983
     47 H12        -5.7926   -1.7822    0.8587 H         1 <0>         0.1379
     48 H13        -6.3982   -2.6634    3.0748 H         1 <0>         0.1401
     49 H14        -2.3728   -2.1283    4.4175 H         1 <0>         0.1427
     50 H15        -4.6601   -3.9052    5.1721 H         1 <0>         0.3991
     51 H16         5.0987    0.4496    0.7797 H         1 <0>         0.0873
     52 H17         4.7725    0.6349   -0.9603 H         1 <0>         0.1123
     53 H18         6.9411    1.6483   -0.4282 H         1 <0>         0.1511
     54 H19         5.7832    2.9283   -0.8631 H         1 <0>         0.1453
     55 H20         8.1902    3.4467    0.6893 H         1 <0>         0.1403
     56 H21         6.8971    4.6166    0.3305 H         1 <0>         0.1443
     57 H22         8.2503    5.3001    2.3146 H         1 <0>         0.1434
     58 H23         6.5478    4.9996    2.7418 H         1 <0>         0.0820
     59 H24         7.3515    1.7441    4.2071 H         1 <0>         0.1427
     60 H25         6.0086    2.8660    3.8773 H         1 <0>         0.0819
     61 H26         5.9869    1.0155    2.2470 H         1 <0>         0.1399
     62 H27         7.6680    1.3807    1.7889 H         1 <0>         0.1414
     63 H28         5.3818    3.2024    1.5114 H         1 <0>         0.4304
@<TRIPOS>BOND
     1    1    6 ar
     2    1    2 ar
     3    1   36 1
     4    2    3 ar
     5    2   37 1
     6    3    4 ar
     7    3   27 1
     8    4    5 ar
     9    4   38 1
    10    5    6 ar
    11    5   39 1
    12    6    7 1
    13    7   25 1
    14    7    8 1
    15    7   40 1
    16    8   13 1
    17    8    9 2
    18    9   10 1
    19    9   19 1
    20   10   11 1
    21   10   41 1
    22   10   42 1
    23   11   12 1
    24   12   17 ar
    25   12   13 ar
    26   13   14 ar
    27   14   15 ar
    28   14   43 1
    29   15   16 ar
    30   15   44 1
    31   16   17 ar
    32   16   18 1
    33   17   45 1
    34   18   46 1
    35   19   24 ar
    36   19   20 ar
    37   20   21 ar
    38   20   47 1
    39   21   22 ar
    40   21   48 1
    41   22   23 ar
    42   22   26 1
    43   23   24 ar
    44   23   49 1
    45   24   25 1
    46   26   50 1
    47   27   28 1
    48   28   29 1
    49   28   51 1
    50   28   52 1
    51   29   30 1
    52   29   53 1
    53   29   54 1
    54   30   35 1
    55   30   31 1
    56   30   63 1
    57   31   32 1
    58   31   55 1
    59   31   56 1
    60   32   33 1
    61   32   57 1
    62   32   58 1
    63   33   34 1
    64   34   35 1
    65   34   59 1
    66   34   60 1
    67   35   61 1
    68   35   62 1
@<TRIPOS>MOLECULE
CHEMBL210699__2
   62    67     0     0     0
SMALL
USER_CHARGES

@<TRIPOS>ATOM
      1 C1         -0.0167    1.3784    0.0096 C.ar      1 <0>        -0.0623
      2 C2          1.1695    2.0865    0.0021 C.ar      1 <0>        -0.1474
      3 C3          2.3802    1.4093   -0.0131 C.ar      1 <0>         0.1417
      4 C4          2.3963    0.0221   -0.0206 C.ar      1 <0>        -0.2075
      5 C5          1.2074   -0.6814   -0.0130 C.ar      1 <0>        -0.0651
      6 C6          0.0021   -0.0041    0.0020 C.ar      1 <0>        -0.1561
      7 C7         -1.2934   -0.7740    0.0107 C.3       1 <0>         0.1930
      8 C8         -1.6211   -1.2076   -1.3895 C.2       1 <0>        -0.0882
      9 C9         -1.1608   -2.3844   -1.8611 C.2       1 <0>        -0.1030
     10 C10        -1.4344   -2.7918   -3.2812 C.3       1 <0>         0.1146
     11 O1         -2.6753   -2.2496   -3.7320 O.3       1 <0>        -0.3048
     12 C11        -2.9334   -0.9437   -3.4661 C.ar      1 <0>         0.1511
     13 C12        -2.4367   -0.3713   -2.2828 C.ar      1 <0>        -0.1223
     14 C13        -2.7159    0.9592   -1.9798 C.ar      1 <0>        -0.0582
     15 C14        -3.4695    1.7153   -2.8542 C.ar      1 <0>        -0.1678
     16 C15        -3.9465    1.1541   -4.0321 C.ar      1 <0>         0.1482
     17 C16        -3.6793   -0.1741   -4.3373 C.ar      1 <0>        -0.1683
     18 O2         -4.6797    1.9095   -4.8911 O.3       1 <0>        -0.4939
     19 C17        -0.4124   -3.2588   -0.9453 C.ar      1 <0>        -0.1268
     20 C18         0.2995   -4.3619   -1.4118 C.ar      1 <0>        -0.0572
     21 C19         1.0021   -5.1474   -0.5213 C.ar      1 <0>        -0.1700
     22 C20         1.0017   -4.8403    0.8340 C.ar      1 <0>         0.1486
     23 C21         0.2892   -3.7469    1.3073 C.ar      1 <0>        -0.1725
     24 C22        -0.4246   -2.9570    0.4267 C.ar      1 <0>         0.1543
     25 O3         -1.1619   -1.9068    0.8699 O.3       1 <0>        -0.2930
     26 O4          1.7030   -5.6157    1.7017 O.3       1 <0>        -0.4929
     27 O5          3.5484    2.1036   -0.0209 O.3       1 <0>        -0.2949
     28 C23         4.7565    1.3405   -0.0365 C.3       1 <0>         0.0628
     29 C24         5.9580    2.2878   -0.0434 C.3       1 <0>         0.0552
     30 N1          5.9923    3.0443    1.2153 N.3       1 <0>        -0.5302
     31 C25         6.2615    2.1570    2.3561 C.3       1 <0>         0.0129
     32 C26         6.2294    2.9744    3.6502 C.3       1 <0>         0.0639
     33 O6          7.1779    4.0408    3.5582 O.3       1 <0>        -0.3848
     34 C27         6.9452    4.9249    2.4584 C.3       1 <0>         0.0630
     35 C28         6.9846    4.1273    1.1522 C.3       1 <0>         0.0180
     36 H1         -0.9594    1.9052    0.0259 H         1 <0>         0.1311
     37 H2          1.1543    3.1664    0.0076 H         1 <0>         0.1355
     38 H3          3.3375   -0.5074   -0.0328 H         1 <0>         0.1268
     39 H4          1.2194   -1.7613   -0.0189 H         1 <0>         0.1265
     40 H5         -2.0909   -0.1311    0.3832 H         1 <0>         0.1326
     41 H6         -0.6301   -2.4275   -3.9204 H         1 <0>         0.0781
     42 H7         -1.4749   -3.8794   -3.3411 H         1 <0>         0.1206
     43 H8         -2.3447    1.3969   -1.0648 H         1 <0>         0.1336
     44 H9         -3.6890    2.7470   -2.6223 H         1 <0>         0.1373
     45 H10        -4.0534   -0.6042   -5.2546 H         1 <0>         0.1426
     46 H11        -4.1523    2.3730   -5.5559 H         1 <0>         0.3966
     47 H12         0.3011   -4.6010   -2.4650 H         1 <0>         0.1362
     48 H13         1.5541   -6.0041   -0.8788 H         1 <0>         0.1373
     49 H14         0.2931   -3.5140    2.3619 H         1 <0>         0.1432
     50 H15         2.6161   -5.3276    1.8370 H         1 <0>         0.3960
     51 H16         4.7979    0.7076    0.8500 H         1 <0>         0.0640
     52 H17         4.7806    0.7165   -0.9299 H         1 <0>         0.0680
     53 H18         6.8762    1.7093   -0.1448 H         1 <0>         0.0597
     54 H19         5.8702    2.9798   -0.8810 H         1 <0>         0.0907
     55 H20         5.5004    1.3779    2.3988 H         1 <0>         0.0853
     56 H21         7.2443    1.7005    2.2382 H         1 <0>         0.0443
     57 H22         5.2310    3.3868    3.7956 H         1 <0>         0.0613
     58 H23         6.4847    2.3319    4.4930 H         1 <0>         0.0989
     59 H24         5.9676    5.3941    2.5691 H         1 <0>         0.0616
     60 H25         7.7182    5.6932    2.4392 H         1 <0>         0.0998
     61 H26         7.9789    3.7023    1.0151 H         1 <0>         0.0440
     62 H27         6.7513    4.7864    0.3161 H         1 <0>         0.0887
@<TRIPOS>BOND
     1    1    6 ar
     2    1    2 ar
     3    1   36 1
     4    2    3 ar
     5    2   37 1
     6    3    4 ar
     7    3   27 1
     8    4    5 ar
     9    4   38 1
    10    5    6 ar
    11    5   39 1
    12    6    7 1
    13    7   25 1
    14    7    8 1
    15    7   40 1
    16    8   13 1
    17    8    9 2
    18    9   10 1
    19    9   19 1
    20   10   11 1
    21   10   41 1
    22   10   42 1
    23   11   12 1
    24   12   17 ar
    25   12   13 ar
    26   13   14 ar
    27   14   15 ar
    28   14   43 1
    29   15   16 ar
    30   15   44 1
    31   16   17 ar
    32   16   18 1
    33   17   45 1
    34   18   46 1
    35   19   24 ar
    36   19   20 ar
    37   20   21 ar
    38   20   47 1
    39   21   22 ar
    40   21   48 1
    41   22   23 ar
    42   22   26 1
    43   23   24 ar
    44   23   49 1
    45   24   25 1
    46   26   50 1
    47   27   28 1
    48   28   29 1
    49   28   51 1
    50   28   52 1
    51   29   30 1
    52   29   53 1
    53   29   54 1
    54   30   35 1
    55   30   31 1
    56   31   32 1
    57   31   55 1
    58   31   56 1
    59   32   33 1
    60   32   57 1
    61   32   58 1
    62   33   34 1
    63   34   35 1
    64   34   59 1
    65   34   60 1
    66   35   61 1
    67   35   62 1
@<TRIPOS>MOLECULE
CHEMBL210699__3
   63    68     0     0     0
SMALL
USER_CHARGES

@<TRIPOS>ATOM
      1 C1         -0.0167    1.3784    0.0096 C.ar      1 <0>        -0.0614
      2 C2          1.1695    2.0865    0.0021 C.ar      1 <0>        -0.1361
      3 C3          2.3802    1.4093   -0.0131 C.ar      1 <0>         0.1183
      4 C4          2.3963    0.0221   -0.0206 C.ar      1 <0>        -0.1971
      5 C5          1.2074   -0.6814   -0.0130 C.ar      1 <0>        -0.0658
      6 C6          0.0021   -0.0041    0.0020 C.ar      1 <0>        -0.1311
      7 C7         -1.2934   -0.7740    0.0107 C.3       1 <0>         0.1886
      8 C8         -1.6211   -1.2076   -1.3895 C.2       1 <0>        -0.0927
      9 C9         -1.1608   -2.3844   -1.8611 C.2       1 <0>        -0.0986
     10 C10        -1.4344   -2.7918   -3.2812 C.3       1 <0>         0.1133
     11 O1         -2.6753   -2.2496   -3.7320 O.3       1 <0>        -0.3024
     12 C11        -2.9334   -0.9437   -3.4661 C.ar      1 <0>         0.1533
     13 C12        -2.4367   -0.3713   -2.2828 C.ar      1 <0>        -0.1268
     14 C13        -2.7159    0.9592   -1.9798 C.ar      1 <0>        -0.0607
     15 C14        -3.4695    1.7153   -2.8542 C.ar      1 <0>        -0.1687
     16 C15        -3.9465    1.1541   -4.0321 C.ar      1 <0>         0.1531
     17 C16        -3.6793   -0.1741   -4.3373 C.ar      1 <0>        -0.1670
     18 O2         -4.6797    1.9095   -4.8911 O.3       1 <0>        -0.4921
     19 C17        -0.4124   -3.2588   -0.9453 C.ar      1 <0>        -0.1281
     20 C18         0.2995   -4.3619   -1.4118 C.ar      1 <0>        -0.0553
     21 C19         1.0021   -5.1474   -0.5213 C.ar      1 <0>        -0.1675
     22 C20         1.0017   -4.8403    0.8340 C.ar      1 <0>         0.1500
     23 C21         0.2892   -3.7469    1.3073 C.ar      1 <0>        -0.1730
     24 C22        -0.4246   -2.9570    0.4267 C.ar      1 <0>         0.1484
     25 O3         -1.1619   -1.9068    0.8699 O.3       1 <0>        -0.2908
     26 O4          1.7030   -5.6157    1.7017 O.3       1 <0>        -0.4900
     27 O5          3.5484    2.1036   -0.0209 O.3       1 <0>        -0.3272
     28 C23         4.7565    1.3405   -0.0365 C.3       1 <0>         0.0247
     29 C24         5.9580    2.2878   -0.0434 C.3       1 <0>         0.0001
     30 N1          5.9923    3.0443    1.2153 N.4       1 <0>        -0.3870
     31 C25         6.2317    2.1227    2.3345 C.3       1 <0>        -0.0503
     32 C26         6.2668    2.9133    3.6448 C.3       1 <0>         0.0372
     33 O6          7.2835    3.9161    3.5634 O.3       1 <0>        -0.3554
     34 C27         7.1072    4.8248    2.4730 C.3       1 <0>         0.0354
     35 C28         7.0736    4.0378    1.1605 C.3       1 <0>        -0.0437
     36 H1         -0.9594    1.9052    0.0259 H         1 <0>         0.1391
     37 H2          1.1543    3.1664    0.0076 H         1 <0>         0.1380
     38 H3          3.3375   -0.5074   -0.0328 H         1 <0>         0.1289
     39 H4          1.2194   -1.7613   -0.0189 H         1 <0>         0.1344
     40 H5         -2.0909   -0.1311    0.3832 H         1 <0>         0.1363
     41 H6         -0.6301   -2.4275   -3.9204 H         1 <0>         0.0788
     42 H7         -1.4749   -3.8794   -3.3411 H         1 <0>         0.1224
     43 H8         -2.3447    1.3969   -1.0648 H         1 <0>         0.1304
     44 H9         -3.6890    2.7470   -2.6223 H         1 <0>         0.1379
     45 H10        -4.0534   -0.6042   -5.2546 H         1 <0>         0.1449
     46 H11        -4.1523    2.3730   -5.5559 H         1 <0>         0.3981
     47 H12         0.3011   -4.6010   -2.4650 H         1 <0>         0.1383
     48 H13         1.5541   -6.0041   -0.8788 H         1 <0>         0.1397
     49 H14         0.2931   -3.5140    2.3619 H         1 <0>         0.1435
     50 H15         2.6161   -5.3276    1.8370 H         1 <0>         0.3951
     51 H16         4.7979    0.7076    0.8500 H         1 <0>         0.0867
     52 H17         4.7806    0.7165   -0.9299 H         1 <0>         0.1111
     53 H18         6.8762    1.7093   -0.1448 H         1 <0>         0.1512
     54 H19         5.8702    2.9798   -0.8810 H         1 <0>         0.1453
     55 H20         5.4300    1.3854    2.3761 H         1 <0>         0.1396
     56 H21         7.1856    1.6155    2.1902 H         1 <0>         0.1416
     57 H22         5.2996    3.3881    3.8095 H         1 <0>         0.0820
     58 H23         6.4870    2.2380    4.4716 H         1 <0>         0.1429
     59 H24         6.1687    5.3651    2.5976 H         1 <0>         0.0820
     60 H25         7.9355    5.5329    2.4517 H         1 <0>         0.1436
     61 H26         8.0272    3.5298    1.0167 H         1 <0>         0.1404
     62 H27         6.8970    4.7221    0.3307 H         1 <0>         0.1443
     63 H28         5.1098    3.5146    1.3494 H         1 <0>         0.4300
@<TRIPOS>BOND
     1    1    6 ar
     2    1    2 ar
     3    1   36 1
     4    2    3 ar
     5    2   37 1
     6    3    4 ar
     7    3   27 1
     8    4    5 ar
     9    4   38 1
    10    5    6 ar
    11    5   39 1
    12    6    7 1
    13    7   25 1
    14    7    8 1
    15    7   40 1
    16    8   13 1
    17    8    9 2
    18    9   10 1
    19    9   19 1
    20   10   11 1
    21   10   41 1
    22   10   42 1
    23   11   12 1
    24   12   17 ar
    25   12   13 ar
    26   13   14 ar
    27   14   15 ar
    28   14   43 1
    29   15   16 ar
    30   15   44 1
    31   16   17 ar
    32   16   18 1
    33   17   45 1
    34   18   46 1
    35   19   24 ar
    36   19   20 ar
    37   20   21 ar
    38   20   47 1
    39   21   22 ar
    40   21   48 1
    41   22   23 ar
    42   22   26 1
    43   23   24 ar
    44   23   49 1
    45   24   25 1
    46   26   50 1
    47   27   28 1
    48   28   29 1
    49   28   51 1
    50   28   52 1
    51   29   30 1
    52   29   53 1
    53   29   54 1
    54   30   35 1
    55   30   31 1
    56   30   63 1
    57   31   32 1
    58   31   55 1
    59   31   56 1
    60   32   33 1
    61   32   57 1
    62   32   58 1
    63   33   34 1
    64   34   35 1
    65   34   59 1
    66   34   60 1
    67   35   61 1
    68   35   62 1
@<TRIPOS>MOLECULE
CHEMBL385358
   45    49     0     0     0
SMALL
USER_CHARGES

@<TRIPOS>ATOM
      1 C1         -0.0184    1.5028    0.0103 C.3       1 <0>        -0.1070
      2 C2          0.0021   -0.0041    0.0020 C.2       1 <0>        -0.1948
      3 C3         -1.1503   -0.7069    0.0036 C.2       1 <0>         0.0235
      4 C4         -2.5299   -0.2307    0.1427 C.ar      1 <0>        -0.1285
      5 C5         -3.1070    1.0270   -0.1262 C.ar      1 <0>        -0.0312
      6 C6         -4.4185    1.2646    0.1411 C.ar      1 <0>        -0.1482
      7 C7         -5.2207    0.2576    0.6804 C.ar      1 <0>         0.1496
      8 C8         -4.6714   -1.0182    0.9216 C.ar      1 <0>        -0.1745
      9 C9         -3.3278   -1.2639    0.6357 C.ar      1 <0>         0.0159
     10 C10        -2.5100   -2.5370    0.7105 C.3       1 <0>        -0.0836
     11 C11        -1.2256   -2.2235   -0.0767 C.3       1 <0>        -0.0317
     12 C12         0.0027   -2.7811    0.6480 C.3       1 <0>        -0.1075
     13 C13         1.2590   -2.2101   -0.0182 C.3       1 <0>        -0.1699
     14 C14         1.2265   -0.7059   -0.0134 C.2       1 <0>         0.3928
     15 O1          2.2707   -0.0856   -0.0182 O.2       1 <0>        -0.4618
     16 C15        -1.3177   -2.7106   -1.5242 C.3       1 <0>        -0.0596
     17 C16        -1.3895   -4.2157   -1.5441 C.ar      1 <0>        -0.0892
     18 C17        -0.2273   -4.9619   -1.6046 C.ar      1 <0>        -0.0862
     19 C18        -0.2919   -6.3423   -1.6225 C.ar      1 <0>        -0.1497
     20 C19        -1.5213   -6.9779   -1.5799 C.ar      1 <0>         0.0972
     21 C20        -2.6846   -6.2295   -1.5194 C.ar      1 <0>        -0.1496
     22 C21        -2.6173   -4.8493   -1.4962 C.ar      1 <0>        -0.0871
     23 F1         -1.5857   -8.3272   -1.5978 F         1 <0>        -0.1392
     24 C22        -5.7550   -1.8344    1.4640 C.2       1 <0>         0.0838
     25 N1         -6.8192   -1.0871    1.5288 N.2       1 <0>        -0.2471
     26 N2         -6.5333    0.1993    1.0609 N.pl3     1 <0>        -0.5055
     27 H1         -7.1653    0.9336    1.0139 H         1 <0>         0.4431
     28 H2          1.0042    1.8801    0.0026 H         1 <0>         0.0757
     29 H3         -0.5455    1.8639   -0.8728 H         1 <0>         0.0686
     30 H4         -0.5286    1.8543    0.9071 H         1 <0>         0.0690
     31 H5         -2.4989    1.8125   -0.5501 H         1 <0>         0.1354
     32 H6         -4.8416    2.2368   -0.0644 H         1 <0>         0.1328
     33 H7         -2.2714   -2.7746    1.7472 H         1 <0>         0.0972
     34 H8         -3.0487   -3.3623    0.2452 H         1 <0>         0.0968
     35 H9         -0.0237   -2.4832    1.6962 H         1 <0>         0.0776
     36 H10         0.0102   -3.8684    0.5730 H         1 <0>         0.0871
     37 H11         2.1406   -2.5544    0.5225 H         1 <0>         0.0986
     38 H12         1.3104   -2.5612   -1.0488 H         1 <0>         0.1008
     39 H13        -2.2124   -2.2979   -1.9902 H         1 <0>         0.0846
     40 H14        -0.4365   -2.3816   -2.0750 H         1 <0>         0.0833
     41 H15         0.7315   -4.4660   -1.6382 H         1 <0>         0.1332
     42 H16         0.6161   -6.9250   -1.6700 H         1 <0>         0.1364
     43 H17        -3.6441   -6.7241   -1.4864 H         1 <0>         0.1362
     44 H18        -3.5244   -4.2654   -1.4446 H         1 <0>         0.1336
     45 H19        -5.6858   -2.8714    1.7577 H         1 <0>         0.1994
@<TRIPOS>BOND
     1    1    2 1
     2    1   28 1
     3    1   29 1
     4    1   30 1
     5    2   14 1
     6    2    3 2
     7    3   11 1
     8    3    4 1
     9    4    9 ar
    10    4    5 ar
    11    5    6 ar
    12    5   31 1
    13    6    7 ar
    14    6   32 1
    15    7   26 1
    16    7    8 ar
    17    8    9 ar
    18    8   24 1
    19    9   10 1
    20   10   11 1
    21   10   33 1
    22   10   34 1
    23   11   12 1
    24   11   16 1
    25   12   13 1
    26   12   35 1
    27   12   36 1
    28   13   14 1
    29   13   37 1
    30   13   38 1
    31   14   15 2
    32   16   17 1
    33   16   39 1
    34   16   40 1
    35   17   22 ar
    36   17   18 ar
    37   18   19 ar
    38   18   41 1
    39   19   20 ar
    40   19   42 1
    41   20   21 ar
    42   20   23 1
    43   21   22 ar
    44   21   43 1
    45   22   44 1
    46   24   25 2
    47   24   45 1
    48   25   26 1
    49   26   27 1
@<TRIPOS>MOLECULE
CHEMBL385358__1
   45    49     0     0     0
SMALL
USER_CHARGES

@<TRIPOS>ATOM
      1 C1         -0.0184    1.5028    0.0103 C.3       1 <0>        -0.1059
      2 C2          0.0021   -0.0041    0.0020 C.2       1 <0>        -0.1998
      3 C3         -1.1517   -0.7080    0.0036 C.2       1 <0>         0.0254
      4 C4         -2.5302   -0.2304    0.1422 C.ar      1 <0>        -0.1262
      5 C5         -3.0975    1.0372   -0.1462 C.ar      1 <0>        -0.0439
      6 C6         -4.3938    1.3139    0.1013 C.ar      1 <0>        -0.1091
      7 C7         -5.2347    0.3248    0.6626 C.ar      1 <0>         0.1214
      8 C8         -4.6733   -1.0073    0.9406 C.ar      1 <0>        -0.2009
      9 C9         -3.3228   -1.2565    0.6422 C.ar      1 <0>         0.0176
     10 C10        -2.5101   -2.5334    0.7158 C.3       1 <0>        -0.0841
     11 C11        -1.2276   -2.2244   -0.0763 C.3       1 <0>        -0.0317
     12 C12         0.0021   -2.7818    0.6464 C.3       1 <0>        -0.1072
     13 C13         1.2572   -2.2094   -0.0204 C.3       1 <0>        -0.1698
     14 C14         1.2248   -0.7053   -0.0134 C.2       1 <0>         0.3927
     15 O1          2.2694   -0.0850   -0.0167 O.2       1 <0>        -0.4638
     16 C15        -1.3248   -2.7128   -1.5230 C.3       1 <0>        -0.0598
     17 C16        -1.3971   -4.2179   -1.5414 C.ar      1 <0>        -0.0880
     18 C17        -0.2353   -4.9645   -1.6051 C.ar      1 <0>        -0.0860
     19 C18        -0.3003   -6.3448   -1.6215 C.ar      1 <0>        -0.1494
     20 C19        -1.5296   -6.9801   -1.5741 C.ar      1 <0>         0.0966
     21 C20        -2.6925   -6.2313   -1.5102 C.ar      1 <0>        -0.1504
     22 C21        -2.6248   -4.8512   -1.4886 C.ar      1 <0>        -0.0876
     23 F1         -1.5944   -8.3294   -1.5905 F         1 <0>        -0.1394
     24 C22        -5.7055   -1.7610    1.4780 C.2       1 <0>         0.0988
     25 N1         -6.7945   -0.9847    1.5312 N.pl3     1 <0>        -0.4207
     26 N2         -6.5001    0.2887    1.0315 N.2       1 <0>        -0.3030
     27 H1         -7.6607   -1.2638    1.8670 H         1 <0>         0.4471
     28 H2          1.0042    1.8801    0.0026 H         1 <0>         0.0746
     29 H3         -0.5455    1.8639   -0.8728 H         1 <0>         0.0687
     30 H4         -0.5286    1.8543    0.9071 H         1 <0>         0.0688
     31 H5         -2.4718    1.8045   -0.5776 H         1 <0>         0.1317
     32 H6         -4.7905    2.2915   -0.1297 H         1 <0>         0.1345
     33 H7         -2.2688   -2.7711    1.7518 H         1 <0>         0.0949
     34 H8         -3.0536   -3.3569    0.2527 H         1 <0>         0.0941
     35 H9         -0.0235   -2.4851    1.6949 H         1 <0>         0.0771
     36 H10         0.0102   -3.8691    0.5703 H         1 <0>         0.0859
     37 H11         2.1396   -2.5545    0.5186 H         1 <0>         0.0978
     38 H12         1.3074   -2.5589   -1.0517 H         1 <0>         0.1002
     39 H13        -2.2211   -2.3003   -1.9863 H         1 <0>         0.0852
     40 H14        -0.4455   -2.3845   -2.0772 H         1 <0>         0.0837
     41 H15         0.7235   -4.4688   -1.6425 H         1 <0>         0.1336
     42 H16         0.6075   -6.9278   -1.6717 H         1 <0>         0.1365
     43 H17        -3.6520   -6.7258   -1.4735 H         1 <0>         0.1353
     44 H18        -3.5316   -4.2670   -1.4343 H         1 <0>         0.1328
     45 H19        -5.6422   -2.7911    1.7963 H         1 <0>         0.1915
@<TRIPOS>BOND
     1    1    2 1
     2    1   28 1
     3    1   29 1
     4    1   30 1
     5    2   14 1
     6    2    3 2
     7    3   11 1
     8    3    4 1
     9    4    9 ar
    10    4    5 ar
    11    5    6 ar
    12    5   31 1
    13    6    7 ar
    14    6   32 1
    15    7    8 ar
    16    7   26 2
    17    8    9 ar
    18    8   24 2
    19    9   10 1
    20   10   11 1
    21   10   33 1
    22   10   34 1
    23   11   12 1
    24   11   16 1
    25   12   13 1
    26   12   35 1
    27   12   36 1
    28   13   14 1
    29   13   37 1
    30   13   38 1
    31   14   15 2
    32   16   17 1
    33   16   39 1
    34   16   40 1
    35   17   22 ar
    36   17   18 ar
    37   18   19 ar
    38   18   41 1
    39   19   20 ar
    40   19   42 1
    41   20   21 ar
    42   20   23 1
    43   21   22 ar
    44   21   43 1
    45   22   44 1
    46   24   45 1
    47   24   25 1
    48   25   27 1
    49   25   26 1
@<TRIPOS>MOLECULE
CHEMBL385358__2
   45    49     0     0     0
SMALL
USER_CHARGES

@<TRIPOS>ATOM
      1 C1         -0.0184    1.5028    0.0103 C.3       1 <0>        -0.1070
      2 C2          0.0021   -0.0041    0.0020 C.2       1 <0>        -0.1949
      3 C3         -1.1503   -0.7069    0.0036 C.2       1 <0>         0.0235
      4 C4         -2.5311   -0.2293   -0.1170 C.ar      1 <0>        -0.1284
      5 C5         -3.1056    1.0253    0.1716 C.ar      1 <0>        -0.0312
      6 C6         -4.4196    1.2658   -0.0805 C.ar      1 <0>        -0.1482
      7 C7         -5.2269    0.2649   -0.6234 C.ar      1 <0>         0.1496
      8 C8         -4.6801   -1.0081   -0.8840 C.ar      1 <0>        -0.1744
      9 C9         -3.3338   -1.2569   -0.6138 C.ar      1 <0>         0.0159
     10 C10        -2.5168   -2.5290   -0.7107 C.3       1 <0>        -0.0837
     11 C11        -1.2249   -2.2244    0.0677 C.3       1 <0>        -0.0316
     12 C12        -0.0036   -2.7737   -0.6749 C.3       1 <0>        -0.1077
     13 C13         1.2590   -2.2101   -0.0145 C.3       1 <0>        -0.1699
     14 C14         1.2265   -0.7059   -0.0134 C.2       1 <0>         0.3928
     15 O1          2.2707   -0.0856   -0.0216 O.2       1 <0>        -0.4618
     16 C15        -1.3031   -2.7275    1.5104 C.3       1 <0>        -0.0596
     17 C16        -1.3749   -4.2328    1.5143 C.ar      1 <0>        -0.0892
     18 C17        -2.6029   -4.8659    1.4653 C.ar      1 <0>        -0.0871
     19 C18        -2.6699   -6.2463    1.4683 C.ar      1 <0>        -0.1496
     20 C19        -1.5065   -6.9952    1.5203 C.ar      1 <0>         0.0972
     21 C20        -0.2771   -6.3600    1.5694 C.ar      1 <0>        -0.1497
     22 C21        -0.2124   -4.9796    1.5610 C.ar      1 <0>        -0.0862
     23 F1         -1.5708   -8.3447    1.5238 F         1 <0>        -0.1392
     24 C22        -5.7688   -1.8182   -1.4252 C.2       1 <0>         0.0838
     25 N1         -6.8335   -1.0703   -1.4715 N.2       1 <0>        -0.2471
     26 N2         -6.5431    0.2108   -0.9920 N.pl3     1 <0>        -0.5055
     27 H1         -7.1748    0.9444   -0.9302 H         1 <0>         0.4431
     28 H2          1.0042    1.8801    0.0026 H         1 <0>         0.0757
     29 H3         -0.5455    1.8639   -0.8728 H         1 <0>         0.0689
     30 H4         -0.5286    1.8543    0.9071 H         1 <0>         0.0686
     31 H5         -2.4936    1.8058    0.5990 H         1 <0>         0.1354
     32 H6         -4.8406    2.2357    0.1399 H         1 <0>         0.1328
     33 H7         -3.0511   -3.3595   -0.2494 H         1 <0>         0.0969
     34 H8         -2.2882   -2.7551   -1.7522 H         1 <0>         0.0972
     35 H9          0.0046   -3.8618   -0.6122 H         1 <0>         0.0870
     36 H10        -0.0401   -2.4641   -1.7194 H         1 <0>         0.0775
     37 H11         1.3203   -2.5727    1.0116 H         1 <0>         0.1015
     38 H12         2.1354   -2.5483   -0.5674 H         1 <0>         0.0981
     39 H13        -0.4167   -2.4047    2.0564 H         1 <0>         0.0834
     40 H14        -2.1934   -2.3202    1.9896 H         1 <0>         0.0846
     41 H15        -3.5102   -4.2815    1.4250 H         1 <0>         0.1336
     42 H16        -3.6293   -6.7406    1.4304 H         1 <0>         0.1361
     43 H17         0.6310   -6.9432    1.6103 H         1 <0>         0.1364
     44 H18         0.7466   -4.4840    1.5947 H         1 <0>         0.1332
     45 H19        -5.7024   -2.8517   -1.7316 H         1 <0>         0.1993
@<TRIPOS>BOND
     1    1    2 1
     2    1   28 1
     3    1   29 1
     4    1   30 1
     5    2   14 1
     6    2    3 2
     7    3   11 1
     8    3    4 1
     9    4    9 ar
    10    4    5 ar
    11    5    6 ar
    12    5   31 1
    13    6    7 ar
    14    6   32 1
    15    7   26 1
    16    7    8 ar
    17    8    9 ar
    18    8   24 1
    19    9   10 1
    20   10   11 1
    21   10   33 1
    22   10   34 1
    23   11   12 1
    24   11   16 1
    25   12   13 1
    26   12   35 1
    27   12   36 1
    28   13   14 1
    29   13   37 1
    30   13   38 1
    31   14   15 2
    32   16   17 1
    33   16   39 1
    34   16   40 1
    35   17   22 ar
    36   17   18 ar
    37   18   19 ar
    38   18   41 1
    39   19   20 ar
    40   19   42 1
    41   20   21 ar
    42   20   23 1
    43   21   22 ar
    44   21   43 1
    45   22   44 1
    46   24   25 2
    47   24   45 1
    48   25   26 1
    49   26   27 1
@<TRIPOS>MOLECULE
CHEMBL385358__3
   45    49     0     0     0
SMALL
USER_CHARGES

@<TRIPOS>ATOM
      1 C1         -0.0184    1.5028    0.0103 C.3       1 <0>        -0.1060
      2 C2          0.0021   -0.0041    0.0020 C.2       1 <0>        -0.1998
      3 C3         -1.1517   -0.7080    0.0036 C.2       1 <0>         0.0254
      4 C4         -2.5314   -0.2290   -0.1168 C.ar      1 <0>        -0.1262
      5 C5         -3.0959    1.0353    0.1909 C.ar      1 <0>        -0.0439
      6 C6         -4.3946    1.3145   -0.0411 C.ar      1 <0>        -0.1091
      7 C7         -5.2407    0.3317   -0.6056 C.ar      1 <0>         0.1214
      8 C8         -4.6820   -0.9972   -0.9035 C.ar      1 <0>        -0.2009
      9 C9         -3.3287   -1.2496   -0.6204 C.ar      1 <0>         0.0176
     10 C10        -2.5168   -2.5256   -0.7154 C.3       1 <0>        -0.0843
     11 C11        -1.2270   -2.2252    0.0679 C.3       1 <0>        -0.0316
     12 C12        -0.0042   -2.7747   -0.6723 C.3       1 <0>        -0.1074
     13 C13         1.2573   -2.2095   -0.0112 C.3       1 <0>        -0.1698
     14 C14         1.2248   -0.7053   -0.0134 C.2       1 <0>         0.3927
     15 O1          2.2694   -0.0850   -0.0243 O.2       1 <0>        -0.4638
     16 C15        -1.3106   -2.7292    1.5101 C.3       1 <0>        -0.0598
     17 C16        -1.3827   -4.2344    1.5129 C.ar      1 <0>        -0.0880
     18 C17        -2.6107   -4.8671    1.4591 C.ar      1 <0>        -0.0877
     19 C18        -2.6781   -6.2475    1.4611 C.ar      1 <0>        -0.1504
     20 C19        -1.5151   -6.9968    1.5170 C.ar      1 <0>         0.0966
     21 C20        -0.2858   -6.3620    1.5708 C.ar      1 <0>        -0.1494
     22 C21        -0.2206   -4.9815    1.5634 C.ar      1 <0>        -0.0859
     23 F1         -1.5798   -8.3462    1.5194 F         1 <0>        -0.1394
     24 C22        -5.7190   -1.7449   -1.4401 C.2       1 <0>         0.0988
     25 N1         -6.8083   -0.9680   -1.4749 N.pl3     1 <0>        -0.4206
     26 N2         -6.5094    0.2997   -0.9636 N.2       1 <0>        -0.3031
     27 H1         -7.6774   -1.2433   -1.8063 H         1 <0>         0.4471
     28 H2          1.0042    1.8801    0.0026 H         1 <0>         0.0746
     29 H3         -0.5455    1.8639   -0.8728 H         1 <0>         0.0687
     30 H4         -0.5286    1.8543    0.9071 H         1 <0>         0.0688
     31 H5         -2.4662    1.7979    0.6247 H         1 <0>         0.1317
     32 H6         -4.7892    2.2893    0.2047 H         1 <0>         0.1345
     33 H7         -3.0560   -3.3542   -0.2562 H         1 <0>         0.0942
     34 H8         -2.2853   -2.7521   -1.7562 H         1 <0>         0.0949
     35 H9          0.0047   -3.8628   -0.6080 H         1 <0>         0.0858
     36 H10        -0.0395   -2.4667   -1.7173 H         1 <0>         0.0769
     37 H11         1.3171   -2.5701    1.0157 H         1 <0>         0.1009
     38 H12         2.1345   -2.5487   -0.5621 H         1 <0>         0.0973
     39 H13        -0.4260   -2.4068    2.0595 H         1 <0>         0.0837
     40 H14        -2.2025   -2.3218    1.9862 H         1 <0>         0.0853
     41 H15        -3.5177   -4.2825    1.4158 H         1 <0>         0.1329
     42 H16        -3.6376   -6.7415    1.4194 H         1 <0>         0.1353
     43 H17         0.6220   -6.9454    1.6148 H         1 <0>         0.1365
     44 H18         0.7383   -4.4862    1.6009 H         1 <0>         0.1336
     45 H19        -5.6585   -2.7712   -1.7710 H         1 <0>         0.1915
@<TRIPOS>BOND
     1    1    2 1
     2    1   28 1
     3    1   29 1
     4    1   30 1
     5    2   14 1
     6    2    3 2
     7    3   11 1
     8    3    4 1
     9    4    9 ar
    10    4    5 ar
    11    5    6 ar
    12    5   31 1
    13    6    7 ar
    14    6   32 1
    15    7    8 ar
    16    7   26 2
    17    8    9 ar
    18    8   24 2
    19    9   10 1
    20   10   11 1
    21   10   33 1
    22   10   34 1
    23   11   12 1
    24   11   16 1
    25   12   13 1
    26   12   35 1
    27   12   36 1
    28   13   14 1
    29   13   37 1
    30   13   38 1
    31   14   15 2
    32   16   17 1
    33   16   39 1
    34   16   40 1
    35   17   22 ar
    36   17   18 ar
    37   18   19 ar
    38   18   41 1
    39   19   20 ar
    40   19   42 1
    41   20   21 ar
    42   20   23 1
    43   21   22 ar
    44   21   43 1
    45   22   44 1
    46   24   45 1
    47   24   25 1
    48   25   27 1
    49   25   26 1
@<TRIPOS>MOLECULE
CHEMBL187314
   32    35     0     0     0
SMALL
USER_CHARGES

@<TRIPOS>ATOM
      1 C1         -0.0170    1.4029    0.0098 C.ar      1 <0>        -0.1049
      2 C2          1.1488    2.0981    0.0024 C.ar      1 <0>        -0.0839
      3 C3          2.3862    1.4299   -0.0135 C.ar      1 <0>        -0.0352
      4 C4          2.4379    0.0455   -0.0215 C.ar      1 <0>        -0.0308
      5 C5          1.2438   -0.6898   -0.0136 C.ar      1 <0>        -0.0696
      6 C6          0.0021   -0.0041    0.0020 C.ar      1 <0>        -0.0179
      7 C7         -1.1919   -0.7426    0.0090 C.ar      1 <0>        -0.1421
      8 C8         -1.1401   -2.1178    0.0007 C.ar      1 <0>         0.1246
      9 C9          0.0882   -2.7870   -0.0142 C.ar      1 <0>        -0.1409
     10 C10         1.2592   -2.0968   -0.0217 C.ar      1 <0>        -0.0751
     11 O1         -2.2948   -2.8335    0.0074 O.3       1 <0>        -0.4982
     12 C11         3.6403    2.2102   -0.0223 C.2       1 <0>         0.2956
     13 N1          4.8439    1.6961   -0.0427 N.2       1 <0>        -0.4665
     14 C12         5.7509    2.7072   -0.0456 C.ar      1 <0>         0.0180
     15 C13         7.1474    2.7491   -0.0636 C.ar      1 <0>        -0.0419
     16 C14         7.7929    3.9532   -0.0614 C.ar      1 <0>        -0.1395
     17 C15         7.0702    5.1424   -0.0408 C.ar      1 <0>         0.1370
     18 C16         5.6860    5.1201   -0.0223 C.ar      1 <0>        -0.1222
     19 C17         5.0184    3.9056   -0.0253 C.ar      1 <0>         0.0272
     20 O2          3.7131    3.5554   -0.0162 O.3       1 <0>        -0.2054
     21 O3          7.7270    6.3325   -0.0383 O.3       1 <0>        -0.4887
     22 H1         -0.9596    1.9299    0.0261 H         1 <0>         0.1386
     23 H2          1.1259    3.1778    0.0084 H         1 <0>         0.1350
     24 H3          3.3904   -0.4635   -0.0340 H         1 <0>         0.1481
     25 H4         -2.1450   -0.2348    0.0212 H         1 <0>         0.1383
     26 H5          0.1064   -3.8668   -0.0198 H         1 <0>         0.1349
     27 H6          2.1998   -2.6275   -0.0342 H         1 <0>         0.1383
     28 H7         -2.6374   -3.0357   -0.8740 H         1 <0>         0.3953
     29 H8          7.7158    1.8310   -0.0790 H         1 <0>         0.1439
     30 H9          8.8724    3.9824   -0.0753 H         1 <0>         0.1463
     31 H10         5.1289    6.0451   -0.0056 H         1 <0>         0.1438
     32 H11         7.9054    6.6850   -0.9209 H         1 <0>         0.3979
@<TRIPOS>BOND
     1    1    6 ar
     2    1    2 ar
     3    1   22 1
     4    2    3 ar
     5    2   23 1
     6    3    4 ar
     7    3   12 1
     8    4    5 ar
     9    4   24 1
    10    5   10 ar
    11    5    6 ar
    12    6    7 ar
    13    7    8 ar
    14    7   25 1
    15    8    9 ar
    16    8   11 1
    17    9   10 ar
    18    9   26 1
    19   10   27 1
    20   11   28 1
    21   12   20 1
    22   12   13 2
    23   13   14 1
    24   14   19 ar
    25   14   15 ar
    26   15   16 ar
    27   15   29 1
    28   16   17 ar
    29   16   30 1
    30   17   18 ar
    31   17   21 1
    32   18   19 ar
    33   18   31 1
    34   19   20 1
    35   21   32 1
@<TRIPOS>MOLECULE
CHEMBL94225
   69    73     0     0     0
SMALL
USER_CHARGES

@<TRIPOS>ATOM
      1 C1          1.7026    0.7627   -1.3492 C.ar      1 <0>        -0.0957
      2 C2          2.8560    1.5008   -1.1564 C.ar      1 <0>        -0.1135
      3 C3          3.9292    0.9473   -0.4833 C.ar      1 <0>        -0.0633
      4 C4          3.8520   -0.3454   -0.0020 C.ar      1 <0>        -0.1258
      5 C5          2.6962   -1.0879   -0.1941 C.ar      1 <0>         0.1043
      6 C6          1.6202   -0.5300   -0.8695 C.ar      1 <0>        -0.1365
      7 O1          2.6177   -2.3597    0.2785 O.3       1 <0>        -0.4950
      8 C7          5.1846    1.7546   -0.2750 C.3       1 <0>        -0.0668
      9 H1          6.0061    1.0973    0.0101 H         1 <0>         0.1386
     10 C8          4.9539    2.8108    0.8187 C.3       1 <0>         0.1500
     11 H2          5.8197    3.4703    0.8770 H         1 <0>         0.0968
     12 O2          3.7997    3.5703    0.4934 O.3       1 <0>        -0.3050
     13 C9          3.7066    4.2764   -0.6578 C.ar      1 <0>         0.1210
     14 C10         2.8214    5.3515   -0.6850 C.ar      1 <0>        -0.1138
     15 C11         2.6646    6.1047   -1.8301 C.ar      1 <0>        -0.1064
     16 C12         3.3894    5.7981   -2.9725 C.ar      1 <0>         0.0990
     17 C13         4.2775    4.7349   -2.9555 C.ar      1 <0>        -0.0898
     18 C14         4.4408    3.9809   -1.8009 C.ar      1 <0>        -0.1473
     19 S1          5.6074    2.6509   -1.8021 S.3       1 <0>        -0.0805
     20 O3          3.2287    6.5368   -4.1028 O.3       1 <0>        -0.4915
     21 C15         4.7514    2.1262    2.1458 C.ar      1 <0>        -0.1035
     22 C16         3.5217    1.5768    2.4585 C.ar      1 <0>        -0.0363
     23 C17         3.3334    0.9491    3.6746 C.ar      1 <0>        -0.1438
     24 C18         4.3795    0.8700    4.5823 C.ar      1 <0>         0.1245
     25 C19         5.6125    1.4216    4.2661 C.ar      1 <0>        -0.2028
     26 C20         5.7972    2.0437    3.0465 C.ar      1 <0>        -0.0581
     27 O4          4.1966    0.2534    5.7795 O.3       1 <0>        -0.3274
     28 C21         5.3177    0.2094    6.6645 C.3       1 <0>         0.0258
     29 C22         4.9234   -0.5182    7.9514 C.3       1 <0>        -0.0045
     30 N1          4.6143   -1.9214    7.6456 N.4       1 <0>        -0.5119
     31 C23         4.3585   -2.6501    8.8952 C.3       1 <0>         0.0373
     32 C24         4.2596   -4.1573    8.5832 C.3       1 <0>        -0.1359
     33 C25         4.5107   -4.9255    9.8525 C.3       1 <0>        -0.1203
     34 C26         3.2075   -5.2848   10.5916 C.3       1 <0>        -0.1262
     35 C27         2.1887   -4.1290   10.6023 C.3       1 <0>        -0.1295
     36 C28         2.8343   -2.7946   10.8609 C.3       1 <0>        -0.1069
     37 C29         3.1439   -2.1288    9.5045 C.3       1 <0>        -0.1599
     38 H3          0.8638    1.1989   -1.8714 H         1 <0>         0.1309
     39 H4          2.9185    2.5113   -1.5325 H         1 <0>         0.1312
     40 H5          4.6909   -0.7776    0.5231 H         1 <0>         0.1251
     41 H6          0.7191   -1.1059   -1.0201 H         1 <0>         0.1315
     42 H7          2.2728   -2.4239    1.1796 H         1 <0>         0.3861
     43 H8          2.2518    5.5976    0.1990 H         1 <0>         0.1412
     44 H9          1.9748    6.9357   -1.8373 H         1 <0>         0.1429
     45 H10         4.8438    4.4918   -3.8424 H         1 <0>         0.1406
     46 H11         3.8272    7.2937   -4.1664 H         1 <0>         0.3947
     47 H12         2.7076    1.6387    1.7515 H         1 <0>         0.1388
     48 H13         2.3725    0.5208    3.9186 H         1 <0>         0.1347
     49 H14         6.4284    1.3613    4.9711 H         1 <0>         0.1321
     50 H15         6.7581    2.4694    2.7980 H         1 <0>         0.1352
     51 H16         6.1393   -0.3219    6.1840 H         1 <0>         0.0881
     52 H17         5.6323    1.2253    6.9033 H         1 <0>         0.1110
     53 H18         5.7494   -0.4745    8.6612 H         1 <0>         0.1520
     54 H19         4.0457   -0.0391    8.3853 H         1 <0>         0.1446
     55 H20         3.7958   -1.9650    7.0572 H         1 <0>         0.4323
     56 H21         5.1935   -2.4860    9.5763 H         1 <0>         0.1364
     57 H22         3.2634   -4.3886    8.2062 H         1 <0>         0.0958
     58 H23         5.0080   -4.4268    7.8379 H         1 <0>         0.0868
     59 H24         5.0429   -5.8450    9.6088 H         1 <0>         0.0809
     60 H25         5.1354   -4.3229   10.5117 H         1 <0>         0.0696
     61 H26         2.7541   -6.1485   10.1052 H         1 <0>         0.0688
     62 H27         3.4488   -5.5502   11.6208 H         1 <0>         0.0710
     63 H28         1.6836   -4.0952    9.6370 H         1 <0>         0.0634
     64 H29         1.4482   -4.3189   11.3793 H         1 <0>         0.0732
     65 H30         2.1537   -2.1631   11.4320 H         1 <0>         0.0843
     66 H31         3.7601   -2.9377   11.4183 H         1 <0>         0.0772
     67 H32         3.2576   -1.0553    9.6560 H         1 <0>         0.0853
     68 H33         2.3072   -2.3012    8.8275 H         1 <0>         0.0879
     69 H34         5.3963   -2.3411    7.1656 H         1 <0>         0.4274
@<TRIPOS>BOND
     1    1    6 ar
     2    1    2 ar
     3    1   38 1
     4    2    3 ar
     5    2   39 1
     6    3    4 ar
     7    3    8 1
     8    4    5 ar
     9    4   40 1
    10    5    6 ar
    11    5    7 1
    12    6   41 1
    13    7   42 1
    14    8    9 1
    15    8   19 1
    16    8   10 1
    17   10   11 1
    18   10   12 1
    19   10   21 1
    20   12   13 1
    21   13   18 ar
    22   13   14 ar
    23   14   15 ar
    24   14   43 1
    25   15   16 ar
    26   15   44 1
    27   16   17 ar
    28   16   20 1
    29   17   18 ar
    30   17   45 1
    31   18   19 1
    32   20   46 1
    33   21   26 ar
    34   21   22 ar
    35   22   23 ar
    36   22   47 1
    37   23   24 ar
    38   23   48 1
    39   24   25 ar
    40   24   27 1
    41   25   26 ar
    42   25   49 1
    43   26   50 1
    44   27   28 1
    45   28   29 1
    46   28   51 1
    47   28   52 1
    48   29   30 1
    49   29   53 1
    50   29   54 1
    51   30   31 1
    52   30   55 1
    53   30   69 1
    54   31   37 1
    55   31   32 1
    56   31   56 1
    57   32   33 1
    58   32   57 1
    59   32   58 1
    60   33   34 1
    61   33   59 1
    62   33   60 1
    63   34   35 1
    64   34   61 1
    65   34   62 1
    66   35   36 1
    67   35   63 1
    68   35   64 1
    69   36   37 1
    70   36   65 1
    71   36   66 1
    72   37   67 1
    73   37   68 1
@<TRIPOS>MOLECULE
CHEMBL329902
   56    59     0     0     0
SMALL
USER_CHARGES

@<TRIPOS>ATOM
      1 C1         -0.5787    0.1187    0.0828 C.3       1 <0>        -0.0546
      2 N1         -0.5976   -1.3317   -0.1494 N.4       1 <0>        -0.3889
      3 C2          0.0174   -2.0187    0.9941 C.3       1 <0>        -0.0477
      4 C3         -1.9865   -1.7848   -0.3037 C.3       1 <0>        -0.0018
      5 C4         -2.5878   -1.1648   -1.5666 C.3       1 <0>         0.0236
      6 O1         -1.8984   -1.6611   -2.7157 O.3       1 <0>        -0.3274
      7 C5         -2.3121   -1.2063   -3.9277 C.ar      1 <0>         0.1237
      8 C6         -3.3563   -0.2965   -4.0089 C.ar      1 <0>        -0.2032
      9 C7         -3.7746    0.1647   -5.2421 C.ar      1 <0>        -0.0583
     10 C8         -3.1539   -0.2800   -6.3947 C.ar      1 <0>        -0.1036
     11 C9         -2.1133   -1.1870   -6.3165 C.ar      1 <0>        -0.0347
     12 C10        -1.6871   -1.6466   -5.0853 C.ar      1 <0>        -0.1419
     13 C11        -3.6126    0.2244   -7.7387 C.3       1 <0>         0.1492
     14 H1         -4.6224    0.6256   -7.6522 H         1 <0>         0.0968
     15 C12        -2.6603    1.3292   -8.2258 C.3       1 <0>        -0.0670
     16 H2         -2.5799    2.1107   -7.4702 H         1 <0>         0.1398
     17 S1         -3.3765    2.0133   -9.7533 S.3       1 <0>        -0.0801
     18 C13        -3.8929    0.5631  -10.6199 C.ar      1 <0>        -0.1477
     19 C14        -4.2368    0.6658  -11.9614 C.ar      1 <0>        -0.0887
     20 C15        -4.6529   -0.4553  -12.6609 C.ar      1 <0>         0.1002
     21 C16        -4.7266   -1.6798  -12.0132 C.ar      1 <0>        -0.1062
     22 C17        -4.3819   -1.7829  -10.6813 C.ar      1 <0>        -0.1147
     23 C18        -3.9559   -0.6640   -9.9693 C.ar      1 <0>         0.1196
     24 O2         -3.6044   -0.8430   -8.6743 O.3       1 <0>        -0.3057
     25 O3         -4.9876   -0.3559  -13.9751 O.3       1 <0>        -0.4920
     26 C19        -1.2996    0.7469   -8.5096 C.ar      1 <0>        -0.0629
     27 C20        -0.2588    0.9594   -7.6241 C.ar      1 <0>        -0.1111
     28 C21         0.9906    0.4266   -7.8816 C.ar      1 <0>        -0.1022
     29 C22         1.2024   -0.3194   -9.0251 C.ar      1 <0>        -0.1392
     30 C23         0.1602   -0.5339   -9.9149 C.ar      1 <0>         0.1136
     31 C24        -1.0945   -0.0032   -9.6511 C.ar      1 <0>        -0.1326
     32 O4          0.3660   -1.2674  -11.0403 O.3       1 <0>        -0.4951
     33 H3          0.4518    0.4549    0.1973 H         1 <0>         0.1275
     34 H4         -1.0350    0.6285   -0.7657 H         1 <0>         0.1212
     35 H5         -1.1388    0.3490    0.9891 H         1 <0>         0.1249
     36 H6         -0.5427   -1.7885    1.9004 H         1 <0>         0.1233
     37 H7          0.0033   -3.0949    0.8218 H         1 <0>         0.1249
     38 H8          1.0479   -1.6825    1.1086 H         1 <0>         0.1261
     39 H9         -2.0070   -2.8714   -0.3872 H         1 <0>         0.1430
     40 H10        -2.5680   -1.4760    0.5649 H         1 <0>         0.1499
     41 H11        -3.6432   -1.4289   -1.6339 H         1 <0>         0.1099
     42 H12        -2.4868   -0.0804   -1.5226 H         1 <0>         0.0878
     43 H13        -3.8419    0.0506   -3.1089 H         1 <0>         0.1316
     44 H14        -4.5875    0.8729   -5.3059 H         1 <0>         0.1352
     45 H15        -1.6302   -1.5332   -7.2183 H         1 <0>         0.1377
     46 H16        -0.8713   -2.3517   -5.0244 H         1 <0>         0.1352
     47 H17        -4.1794    1.6218  -12.4606 H         1 <0>         0.1405
     48 H18        -5.0546   -2.5555  -12.5535 H         1 <0>         0.1429
     49 H19        -4.4431   -2.7406  -10.1858 H         1 <0>         0.1408
     50 H20        -4.2474   -0.4967  -14.5813 H         1 <0>         0.3954
     51 H21        -0.4223    1.5429   -6.7301 H         1 <0>         0.1219
     52 H22         1.8018    0.5940   -7.1886 H         1 <0>         0.1283
     53 H23         2.1789   -0.7348   -9.2262 H         1 <0>         0.1311
     54 H24        -1.9088   -0.1728  -10.3399 H         1 <0>         0.1358
     55 H25         0.2030   -2.2139  -10.9282 H         1 <0>         0.3919
     56 H26        -0.0791   -1.5448   -0.9884 H         1 <0>         0.4338
@<TRIPOS>BOND
     1    1    2 1
     2    1   33 1
     3    1   34 1
     4    1   35 1
     5    2    3 1
     6    2    4 1
     7    2   56 1
     8    3   36 1
     9    3   37 1
    10    3   38 1
    11    4    5 1
    12    4   39 1
    13    4   40 1
    14    5    6 1
    15    5   41 1
    16    5   42 1
    17    6    7 1
    18    7   12 ar
    19    7    8 ar
    20    8    9 ar
    21    8   43 1
    22    9   10 ar
    23    9   44 1
    24   10   11 ar
    25   10   13 1
    26   11   12 ar
    27   11   45 1
    28   12   46 1
    29   13   14 1
    30   13   24 1
    31   13   15 1
    32   15   16 1
    33   15   17 1
    34   15   26 1
    35   17   18 1
    36   18   23 ar
    37   18   19 ar
    38   19   20 ar
    39   19   47 1
    40   20   21 ar
    41   20   25 1
    42   21   22 ar
    43   21   48 1
    44   22   23 ar
    45   22   49 1
    46   23   24 1
    47   25   50 1
    48   26   31 ar
    49   26   27 ar
    50   27   28 ar
    51   27   51 1
    52   28   29 ar
    53   28   52 1
    54   29   30 ar
    55   29   53 1
    56   30   31 ar
    57   30   32 1
    58   31   54 1
    59   32   55 1
@<TRIPOS>MOLECULE
CHEMBL540584
   66    71     0     0     0
SMALL
USER_CHARGES

@<TRIPOS>ATOM
      1 C1          0.0439    1.0584    0.0477 C.ar      1 <0>        -0.0622
      2 C2          1.1879    1.8270    0.0060 C.ar      1 <0>        -0.1389
      3 C3          2.4358    1.2188    0.0265 C.ar      1 <0>         0.1142
      4 C4          2.5362   -0.1646    0.0896 C.ar      1 <0>        -0.2000
      5 C5          1.3960   -0.9389    0.1315 C.ar      1 <0>        -0.0612
      6 C6          0.1413   -0.3311    0.1110 C.ar      1 <0>        -0.0535
      7 C7         -1.0867   -1.1606    0.1565 C.2       1 <0>        -0.0583
      8 C8         -1.9801   -1.2516   -0.8345 C.2       1 <0>        -0.1018
      9 C9         -3.0666   -2.1901   -0.3884 C.3       1 <0>         0.0435
     10 C10        -3.1826   -3.3893   -1.3419 C.3       1 <0>        -0.0980
     11 C11        -4.3079   -2.9385   -2.2994 C.3       1 <0>        -0.0848
     12 C12        -5.1349   -1.9498   -1.5043 C.ar      1 <0>        -0.0723
     13 C13        -4.4152   -1.5166   -0.4032 C.ar      1 <0>        -0.0875
     14 C14        -4.9769   -0.5990    0.4693 C.ar      1 <0>        -0.0763
     15 C15        -6.2516   -0.1172    0.2495 C.ar      1 <0>        -0.1457
     16 C16        -6.9752   -0.5522   -0.8510 C.ar      1 <0>         0.1154
     17 C17        -6.4128   -1.4687   -1.7262 C.ar      1 <0>        -0.1338
     18 O1         -8.2313   -0.0821   -1.0702 O.3       1 <0>        -0.4968
     19 C18        -2.6968   -2.6394    0.9974 C.ar      1 <0>        -0.0898
     20 C19        -1.4892   -2.0070    1.3030 C.ar      1 <0>        -0.0456
     21 C20        -0.8905   -2.2412    2.5401 C.ar      1 <0>        -0.1247
     22 C21        -1.4917   -3.0962    3.4482 C.ar      1 <0>         0.1094
     23 C22        -2.6899   -3.7205    3.1306 C.ar      1 <0>        -0.1359
     24 C23        -3.2914   -3.4841    1.9072 C.ar      1 <0>        -0.0721
     25 O2         -0.9073   -3.3242    4.6538 O.3       1 <0>        -0.4977
     26 O3          3.5612    1.9789   -0.0156 O.3       1 <0>        -0.3282
     27 C24         4.8119    1.2882    0.0088 C.3       1 <0>         0.0253
     28 C25         5.9559    2.3027   -0.0452 C.3       1 <0>        -0.0008
     29 N1          5.9220    3.1435    1.1588 N.4       1 <0>        -0.3841
     30 C26         6.9189    4.2137    1.0347 C.3       1 <0>        -0.0071
     31 C27         6.8323    5.1401    2.2495 C.3       1 <0>        -0.1467
     32 C28         7.1045    4.3318    3.5214 C.3       1 <0>        -0.1390
     33 C29         6.1057    3.1738    3.6022 C.3       1 <0>        -0.1453
     34 C30         6.2192    2.3203    2.3372 C.3       1 <0>        -0.0132
     35 H1         -0.9266    1.5322    0.0358 H         1 <0>         0.1370
     36 H2          1.1131    2.9033   -0.0431 H         1 <0>         0.1350
     37 H3          3.5084   -0.6347    0.1054 H         1 <0>         0.1291
     38 H4          1.4748   -2.0149    0.1799 H         1 <0>         0.1320
     39 H5         -1.9301   -0.7417   -1.7852 H         1 <0>         0.1507
     40 H6         -2.2504   -3.5449   -1.8849 H         1 <0>         0.0851
     41 H7         -3.4720   -4.2895   -0.7997 H         1 <0>         0.0834
     42 H8         -3.8841   -2.4551   -3.1796 H         1 <0>         0.0863
     43 H9         -4.9187   -3.7921   -2.5932 H         1 <0>         0.0840
     44 H10        -4.4147   -0.2590    1.3264 H         1 <0>         0.1213
     45 H11        -6.6851    0.5973    0.9336 H         1 <0>         0.1319
     46 H12        -6.9743   -1.8083   -2.5840 H         1 <0>         0.1298
     47 H13        -8.2629    0.7168   -1.6141 H         1 <0>         0.3934
     48 H14         0.0417   -1.7564    2.7897 H         1 <0>         0.1239
     49 H15        -3.1565   -4.3862    3.8416 H         1 <0>         0.1355
     50 H16        -4.2228   -3.9723    1.6611 H         1 <0>         0.1297
     51 H17        -1.1843   -2.7101    5.3476 H         1 <0>         0.3925
     52 H18         4.8869    0.7046    0.9263 H         1 <0>         0.0865
     53 H19         4.8760    0.6222   -0.8517 H         1 <0>         0.1096
     54 H20         6.9081    1.7743   -0.0928 H         1 <0>         0.1490
     55 H21         5.8439    2.9299   -0.9296 H         1 <0>         0.1426
     56 H22         7.9160    3.7766    0.9821 H         1 <0>         0.1292
     57 H23         6.7257    4.7861    0.1274 H         1 <0>         0.1310
     58 H24         7.5744    5.9330    2.1563 H         1 <0>         0.1131
     59 H25         5.8356    5.5780    2.3030 H         1 <0>         0.0879
     60 H26         8.1197    3.9360    3.4914 H         1 <0>         0.0821
     61 H27         6.9884    4.9748    4.3938 H         1 <0>         0.0947
     62 H28         6.3284    2.5612    4.4758 H         1 <0>         0.1123
     63 H29         5.0939    3.5709    3.6837 H         1 <0>         0.0878
     64 H30         5.5095    1.4948    2.3915 H         1 <0>         0.1273
     65 H31         7.2312    1.9235    2.2568 H         1 <0>         0.1303
     66 H32         5.0044    3.5512    1.2574 H         1 <0>         0.4293
@<TRIPOS>BOND
     1    1    6 ar
     2    1    2 ar
     3    1   35 1
     4    2    3 ar
     5    2   36 1
     6    3    4 ar
     7    3   26 1
     8    4    5 ar
     9    4   37 1
    10    5    6 ar
    11    5   38 1
    12    6    7 1
    13    7   20 1
    14    7    8 2
    15    8    9 1
    16    8   39 1
    17    9   13 1
    18    9   10 1
    19    9   19 1
    20   10   11 1
    21   10   40 1
    22   10   41 1
    23   11   12 1
    24   11   42 1
    25   11   43 1
    26   12   17 ar
    27   12   13 ar
    28   13   14 ar
    29   14   15 ar
    30   14   44 1
    31   15   16 ar
    32   15   45 1
    33   16   17 ar
    34   16   18 1
    35   17   46 1
    36   18   47 1
    37   19   24 ar
    38   19   20 ar
    39   20   21 ar
    40   21   22 ar
    41   21   48 1
    42   22   23 ar
    43   22   25 1
    44   23   24 ar
    45   23   49 1
    46   24   50 1
    47   25   51 1
    48   26   27 1
    49   27   28 1
    50   27   52 1
    51   27   53 1
    52   28   29 1
    53   28   54 1
    54   28   55 1
    55   29   34 1
    56   29   30 1
    57   29   66 1
    58   30   31 1
    59   30   56 1
    60   30   57 1
    61   31   32 1
    62   31   58 1
    63   31   59 1
    64   32   33 1
    65   32   60 1
    66   32   61 1
    67   33   34 1
    68   33   62 1
    69   33   63 1
    70   34   64 1
    71   34   65 1
@<TRIPOS>MOLECULE
CHEMBL540584__1
   66    71     0     0     0
SMALL
USER_CHARGES

@<TRIPOS>ATOM
      1 C1          0.0439    1.0584    0.0477 C.ar      1 <0>        -0.0624
      2 C2          1.1879    1.8270    0.0060 C.ar      1 <0>        -0.1387
      3 C3          2.4358    1.2188    0.0265 C.ar      1 <0>         0.1140
      4 C4          2.5362   -0.1646    0.0896 C.ar      1 <0>        -0.1998
      5 C5          1.3960   -0.9389    0.1315 C.ar      1 <0>        -0.0617
      6 C6          0.1413   -0.3311    0.1110 C.ar      1 <0>        -0.0534
      7 C7         -1.0867   -1.1606    0.1565 C.2       1 <0>        -0.0596
      8 C8         -1.9802   -1.2517   -0.8344 C.2       1 <0>        -0.1050
      9 C9         -3.0673   -2.1894   -0.3878 C.3       1 <0>         0.0432
     10 C10        -4.4341   -1.4873   -0.3904 C.3       1 <0>        -0.0977
     11 C11        -5.3922   -2.6380   -0.7705 C.3       1 <0>        -0.0852
     12 C12        -4.5437   -3.6209   -1.5499 C.ar      1 <0>        -0.0721
     13 C13        -3.2017   -3.3606   -1.3272 C.ar      1 <0>        -0.0873
     14 C14        -2.2372   -4.1412   -1.9430 C.ar      1 <0>        -0.0773
     15 C15        -2.6060   -5.1772   -2.7772 C.ar      1 <0>        -0.1456
     16 C16        -3.9495   -5.4395   -3.0010 C.ar      1 <0>         0.1156
     17 C17        -4.9155   -4.6590   -2.3851 C.ar      1 <0>        -0.1334
     18 O1         -4.3176   -6.4581   -3.8219 O.3       1 <0>        -0.4974
     19 C18        -2.6971   -2.6396    0.9976 C.ar      1 <0>        -0.0854
     20 C19        -1.4893   -2.0071    1.3029 C.ar      1 <0>        -0.0445
     21 C20        -0.8902   -2.2410    2.5400 C.ar      1 <0>        -0.1247
     22 C21        -1.4911   -3.0964    3.4481 C.ar      1 <0>         0.1095
     23 C22        -2.6886   -3.7220    3.1304 C.ar      1 <0>        -0.1368
     24 C23        -3.2905   -3.4854    1.9073 C.ar      1 <0>        -0.0722
     25 O2         -0.9065   -3.3243    4.6536 O.3       1 <0>        -0.4978
     26 O3          3.5612    1.9789   -0.0156 O.3       1 <0>        -0.3282
     27 C24         4.8119    1.2882    0.0088 C.3       1 <0>         0.0253
     28 C25         5.9559    2.3027   -0.0452 C.3       1 <0>        -0.0008
     29 N1          5.9220    3.1435    1.1588 N.4       1 <0>        -0.3840
     30 C26         6.9189    4.2137    1.0347 C.3       1 <0>        -0.0072
     31 C27         6.8323    5.1401    2.2495 C.3       1 <0>        -0.1466
     32 C28         7.1045    4.3318    3.5214 C.3       1 <0>        -0.1390
     33 C29         6.1057    3.1738    3.6022 C.3       1 <0>        -0.1453
     34 C30         6.2192    2.3203    2.3372 C.3       1 <0>        -0.0132
     35 H1         -0.9266    1.5322    0.0358 H         1 <0>         0.1378
     36 H2          1.1131    2.9033   -0.0431 H         1 <0>         0.1353
     37 H3          3.5084   -0.6347    0.1054 H         1 <0>         0.1289
     38 H4          1.4748   -2.0149    0.1799 H         1 <0>         0.1313
     39 H5         -1.9298   -0.7426   -1.7856 H         1 <0>         0.1517
     40 H6         -4.6711   -1.0958    0.5989 H         1 <0>         0.0850
     41 H7         -4.4622   -0.6957   -1.1391 H         1 <0>         0.0841
     42 H8         -5.7900   -3.1110    0.1274 H         1 <0>         0.0856
     43 H9         -6.2048   -2.2634   -1.3930 H         1 <0>         0.0845
     44 H10        -1.1908   -3.9379   -1.7697 H         1 <0>         0.1212
     45 H11        -1.8497   -5.7823   -3.2550 H         1 <0>         0.1319
     46 H12        -5.9621   -4.8619   -2.5581 H         1 <0>         0.1301
     47 H13        -4.4310   -7.3057   -3.3704 H         1 <0>         0.3941
     48 H14         0.0419   -1.7558    2.7895 H         1 <0>         0.1242
     49 H15        -3.1544   -4.3886    3.8411 H         1 <0>         0.1353
     50 H16        -4.2214   -3.9744    1.6610 H         1 <0>         0.1286
     51 H17        -1.1836   -2.7104    5.3474 H         1 <0>         0.3925
     52 H18         4.8869    0.7046    0.9263 H         1 <0>         0.0864
     53 H19         4.8760    0.6222   -0.8517 H         1 <0>         0.1096
     54 H20         6.9081    1.7743   -0.0928 H         1 <0>         0.1490
     55 H21         5.8439    2.9299   -0.9296 H         1 <0>         0.1426
     56 H22         7.9160    3.7766    0.9821 H         1 <0>         0.1292
     57 H23         6.7257    4.7861    0.1274 H         1 <0>         0.1311
     58 H24         7.5744    5.9330    2.1563 H         1 <0>         0.1131
     59 H25         5.8356    5.5780    2.3030 H         1 <0>         0.0880
     60 H26         8.1197    3.9360    3.4914 H         1 <0>         0.0821
     61 H27         6.9884    4.9748    4.3938 H         1 <0>         0.0947
     62 H28         6.3284    2.5612    4.4758 H         1 <0>         0.1123
     63 H29         5.0939    3.5709    3.6837 H         1 <0>         0.0878
     64 H30         5.5095    1.4948    2.3915 H         1 <0>         0.1273
     65 H31         7.2312    1.9235    2.2568 H         1 <0>         0.1302
     66 H32         5.0044    3.5512    1.2574 H         1 <0>         0.4293
@<TRIPOS>BOND
     1    1    6 ar
     2    1    2 ar
     3    1   35 1
     4    2    3 ar
     5    2   36 1
     6    3    4 ar
     7    3   26 1
     8    4    5 ar
     9    4   37 1
    10    5    6 ar
    11    5   38 1
    12    6    7 1
    13    7   20 1
    14    7    8 2
    15    8    9 1
    16    8   39 1
    17    9   13 1
    18    9   10 1
    19    9   19 1
    20   10   11 1
    21   10   40 1
    22   10   41 1
    23   11   12 1
    24   11   42 1
    25   11   43 1
    26   12   17 ar
    27   12   13 ar
    28   13   14 ar
    29   14   15 ar
    30   14   44 1
    31   15   16 ar
    32   15   45 1
    33   16   17 ar
    34   16   18 1
    35   17   46 1
    36   18   47 1
    37   19   24 ar
    38   19   20 ar
    39   20   21 ar
    40   21   22 ar
    41   21   48 1
    42   22   23 ar
    43   22   25 1
    44   23   24 ar
    45   23   49 1
    46   24   50 1
    47   25   51 1
    48   26   27 1
    49   27   28 1
    50   27   52 1
    51   27   53 1
    52   28   29 1
    53   28   54 1
    54   28   55 1
    55   29   34 1
    56   29   30 1
    57   29   66 1
    58   30   31 1
    59   30   56 1
    60   30   57 1
    61   31   32 1
    62   31   58 1
    63   31   59 1
    64   32   33 1
    65   32   60 1
    66   32   61 1
    67   33   34 1
    68   33   62 1
    69   33   63 1
    70   34   64 1
    71   34   65 1
@<TRIPOS>MOLECULE
CHEMBL98892
   59    63     0     0     0
SMALL
USER_CHARGES

@<TRIPOS>ATOM
      1 C1         -0.0167    1.3796    0.0096 C.ar      1 <0>        -0.1135
      2 C2          1.1681    2.0946    0.0022 C.ar      1 <0>        -0.1183
      3 C3          2.3774    1.4317   -0.0130 C.ar      1 <0>        -0.1028
      4 C4          2.4043    0.0345   -0.0208 C.ar      1 <0>        -0.0500
      5 C5          1.2037   -0.6807   -0.0131 C.ar      1 <0>        -0.1061
      6 C6          0.0021   -0.0041    0.0020 C.ar      1 <0>        -0.1152
      7 C7          3.6924   -0.6812   -0.0374 C.2       1 <0>        -0.1215
      8 C8          4.5285   -0.5872    1.0149 C.2       1 <0>        -0.0671
      9 C9          5.7895   -1.3482    0.9719 C.ar      1 <0>        -0.1430
     10 C10         6.8232   -1.0897    1.8699 C.ar      1 <0>        -0.0499
     11 C11         7.9942   -1.8141    1.7881 C.ar      1 <0>        -0.1698
     12 C12         8.1440   -2.7959    0.8156 C.ar      1 <0>         0.1492
     13 C13         7.1163   -3.0625   -0.0793 C.ar      1 <0>        -0.1774
     14 C14         5.9363   -2.3486   -0.0022 C.ar      1 <0>         0.1457
     15 O1          4.8997   -2.6127   -0.8377 O.3       1 <0>        -0.2949
     16 C15         4.0708   -1.5223   -1.2281 C.3       1 <0>         0.1863
     17 C16         4.8173   -0.6691   -2.2210 C.ar      1 <0>        -0.1309
     18 C17         6.1811   -0.4864   -2.0861 C.ar      1 <0>        -0.0684
     19 C18         6.8677    0.2956   -2.9947 C.ar      1 <0>        -0.1367
     20 C19         6.1876    0.8975   -4.0435 C.ar      1 <0>         0.1174
     21 C20         4.8192    0.7121   -4.1769 C.ar      1 <0>        -0.2000
     22 C21         4.1381   -0.0750   -3.2686 C.ar      1 <0>        -0.0582
     23 O2          6.8606    1.6676   -4.9383 O.3       1 <0>        -0.3276
     24 C22         6.0959    2.2558   -5.9925 C.3       1 <0>         0.0266
     25 C23         7.0180    3.0806   -6.8926 C.3       1 <0>         0.0039
     26 N1          7.9772    2.1895   -7.5588 N.4       1 <0>        -0.3959
     27 C24         7.2758    1.3266   -8.5436 C.3       1 <0>        -0.0106
     28 C25         8.4086    0.8990   -9.5103 C.3       1 <0>        -0.1447
     29 C26         9.2787    2.1730   -9.6084 C.3       1 <0>        -0.1450
     30 C27         8.9522    2.9818   -8.3393 C.3       1 <0>        -0.0086
     31 O3          9.3038   -3.4991    0.7399 O.3       1 <0>        -0.4959
     32 H1         -0.9607    1.9041    0.0260 H         1 <0>         0.1249
     33 H2          1.1457    3.1743    0.0078 H         1 <0>         0.1245
     34 H3          3.3013    1.9910   -0.0191 H         1 <0>         0.1207
     35 H4          1.2168   -1.7606   -0.0194 H         1 <0>         0.1252
     36 H5         -0.9266   -0.5554    0.0083 H         1 <0>         0.1271
     37 H6          4.2814    0.0293    1.8665 H         1 <0>         0.1389
     38 H7          6.7084   -0.3263    2.6253 H         1 <0>         0.1382
     39 H8          8.7977   -1.6180    2.4826 H         1 <0>         0.1376
     40 H9          7.2392   -3.8258   -0.8334 H         1 <0>         0.1418
     41 H10         3.1656   -1.9083   -1.6969 H         1 <0>         0.1321
     42 H11         6.7101   -0.9551   -1.2694 H         1 <0>         0.1393
     43 H12         7.9329    0.4387   -2.8884 H         1 <0>         0.1341
     44 H13         4.2875    1.1796   -4.9925 H         1 <0>         0.1296
     45 H14         3.0736   -0.2232   -3.3746 H         1 <0>         0.1328
     46 H15         5.6225    1.4695   -6.5804 H         1 <0>         0.0856
     47 H16         5.3289    2.9033   -5.5673 H         1 <0>         0.1083
     48 H17         6.4230    3.6005   -7.6434 H         1 <0>         0.1488
     49 H18         7.5584    3.8096   -6.2886 H         1 <0>         0.1413
     50 H19         6.8409    0.4566   -8.0518 H         1 <0>         0.1333
     51 H20         6.5103    1.8925   -9.0745 H         1 <0>         0.1349
     52 H21         8.9816    0.0719   -9.0912 H         1 <0>         0.0985
     53 H22         8.0028    0.6330  -10.4864 H         1 <0>         0.1175
     54 H23        10.3360    1.9085   -9.6269 H         1 <0>         0.1057
     55 H24         9.0151    2.7436  -10.4989 H         1 <0>         0.1045
     56 H25         8.5158    3.9423   -8.6131 H         1 <0>         0.1314
     57 H26         9.8586    3.1361   -7.7539 H         1 <0>         0.1329
     58 H27         9.3111   -4.3045    1.2750 H         1 <0>         0.4000
     59 H28         8.4569    1.6215   -6.8767 H         1 <0>         0.4338
@<TRIPOS>BOND
     1    1    6 ar
     2    1    2 ar
     3    1   32 1
     4    2    3 ar
     5    2   33 1
     6    3    4 ar
     7    3   34 1
     8    4    5 ar
     9    4    7 1
    10    5    6 ar
    11    5   35 1
    12    6   36 1
    13    7   16 1
    14    7    8 2
    15    8    9 1
    16    8   37 1
    17    9   14 ar
    18    9   10 ar
    19   10   11 ar
    20   10   38 1
    21   11   12 ar
    22   11   39 1
    23   12   13 ar
    24   12   31 1
    25   13   14 ar
    26   13   40 1
    27   14   15 1
    28   15   16 1
    29   16   17 1
    30   16   41 1
    31   17   22 ar
    32   17   18 ar
    33   18   19 ar
    34   18   42 1
    35   19   20 ar
    36   19   43 1
    37   20   21 ar
    38   20   23 1
    39   21   22 ar
    40   21   44 1
    41   22   45 1
    42   23   24 1
    43   24   25 1
    44   24   46 1
    45   24   47 1
    46   25   26 1
    47   25   48 1
    48   25   49 1
    49   26   30 1
    50   26   27 1
    51   26   59 1
    52   27   28 1
    53   27   50 1
    54   27   51 1
    55   28   29 1
    56   28   52 1
    57   28   53 1
    58   29   30 1
    59   29   54 1
    60   29   55 1
    61   30   56 1
    62   30   57 1
    63   31   58 1
@<TRIPOS>MOLECULE
CHEMBL98892__1
   59    63     0     0     0
SMALL
USER_CHARGES

@<TRIPOS>ATOM
      1 C1         -0.0167    1.3796    0.0096 C.ar      1 <0>        -0.1124
      2 C2          1.1681    2.0946    0.0022 C.ar      1 <0>        -0.1145
      3 C3          2.3774    1.4317   -0.0130 C.ar      1 <0>        -0.1002
      4 C4          2.4043    0.0345   -0.0208 C.ar      1 <0>        -0.0506
      5 C5          1.2037   -0.6807   -0.0131 C.ar      1 <0>        -0.1076
      6 C6          0.0021   -0.0041    0.0020 C.ar      1 <0>        -0.1206
      7 C7          3.6924   -0.6812   -0.0374 C.2       1 <0>        -0.1222
      8 C8          4.5285   -0.5872    1.0149 C.2       1 <0>        -0.0667
      9 C9          5.8214   -1.2902    0.9414 C.ar      1 <0>        -0.1456
     10 C10         6.6085   -1.4806    2.0755 C.ar      1 <0>        -0.0505
     11 C11         7.8061   -2.1566    1.9681 C.ar      1 <0>        -0.1714
     12 C12         8.2257   -2.6471    0.7371 C.ar      1 <0>         0.1500
     13 C13         7.4495   -2.4560   -0.3982 C.ar      1 <0>        -0.1746
     14 C14         6.2520   -1.7740   -0.3043 C.ar      1 <0>         0.1457
     15 O1          5.4897   -1.5385   -1.4025 O.3       1 <0>        -0.2928
     16 C15         4.0708   -1.5223   -1.2281 C.3       1 <0>         0.1849
     17 C16         3.5755   -2.9301   -1.0185 C.ar      1 <0>        -0.1297
     18 C17         4.2864   -3.7987   -0.2111 C.ar      1 <0>        -0.0675
     19 C18         3.8348   -5.0898   -0.0176 C.ar      1 <0>        -0.1371
     20 C19         2.6667   -5.5145   -0.6340 C.ar      1 <0>         0.1182
     21 C20         1.9550   -4.6409   -1.4433 C.ar      1 <0>        -0.2004
     22 C21         2.4081   -3.3491   -1.6293 C.ar      1 <0>        -0.0613
     23 O2          2.2205   -6.7843   -0.4456 O.3       1 <0>        -0.3276
     24 C22         1.0108   -7.1523   -1.1114 C.3       1 <0>         0.0265
     25 C23         0.6698   -8.6071   -0.7822 C.3       1 <0>         0.0038
     26 N1          0.3766   -8.7288    0.6521 N.4       1 <0>        -0.3959
     27 C24        -0.8951   -8.0330    0.9757 C.3       1 <0>        -0.0106
     28 C25        -1.3386   -8.7029    2.3005 C.3       1 <0>        -0.1447
     29 C26        -0.9308  -10.1798    2.0944 C.3       1 <0>        -0.1451
     30 C27         0.1623  -10.1477    1.0102 C.3       1 <0>        -0.0087
     31 O3          9.4034   -3.3178    0.6441 O.3       1 <0>        -0.4918
     32 H1         -0.9607    1.9041    0.0260 H         1 <0>         0.1250
     33 H2          1.1457    3.1743    0.0078 H         1 <0>         0.1279
     34 H3          3.3013    1.9910   -0.0191 H         1 <0>         0.1261
     35 H4          1.2168   -1.7606   -0.0194 H         1 <0>         0.1195
     36 H5         -0.9266   -0.5554    0.0083 H         1 <0>         0.1224
     37 H6          4.2587   -0.0121    1.8883 H         1 <0>         0.1387
     38 H7          6.2830   -1.1008    3.0326 H         1 <0>         0.1379
     39 H8          8.4200   -2.3056    2.8441 H         1 <0>         0.1376
     40 H9          7.7811   -2.8393   -1.3518 H         1 <0>         0.1423
     41 H10         3.6050   -1.1083   -2.1224 H         1 <0>         0.1321
     42 H11         5.1957   -3.4676    0.2685 H         1 <0>         0.1388
     43 H12         4.3907   -5.7682    0.6126 H         1 <0>         0.1338
     44 H13         1.0454   -4.9691   -1.9242 H         1 <0>         0.1306
     45 H14         1.8521   -2.6673   -2.2557 H         1 <0>         0.1346
     46 H15         0.2005   -6.5046   -0.7769 H         1 <0>         0.0856
     47 H16         1.1414   -7.0445   -2.1881 H         1 <0>         0.1090
     48 H17        -0.2024   -8.9152   -1.3588 H         1 <0>         0.1490
     49 H18         1.5166   -9.2450   -1.0353 H         1 <0>         0.1415
     50 H19        -0.7236   -6.9666    1.1225 H         1 <0>         0.1330
     51 H20        -1.6352   -8.2005    0.1933 H         1 <0>         0.1351
     52 H21        -0.8070   -8.2707    3.1482 H         1 <0>         0.0983
     53 H22        -2.4168   -8.6157    2.4348 H         1 <0>         0.1175
     54 H23        -0.5331  -10.5952    3.0204 H         1 <0>         0.1058
     55 H24        -1.7852  -10.7642    1.7530 H         1 <0>         0.1046
     56 H25        -0.1672  -10.7061    0.1341 H         1 <0>         0.1316
     57 H26         1.0856  -10.5756    1.4010 H         1 <0>         0.1330
     58 H27         9.3240   -4.2723    0.7768 H         1 <0>         0.3961
     59 H28         1.1336   -8.3431    1.1964 H         1 <0>         0.4334
@<TRIPOS>BOND
     1    1    6 ar
     2    1    2 ar
     3    1   32 1
     4    2    3 ar
     5    2   33 1
     6    3    4 ar
     7    3   34 1
     8    4    5 ar
     9    4    7 1
    10    5    6 ar
    11    5   35 1
    12    6   36 1
    13    7   16 1
    14    7    8 2
    15    8    9 1
    16    8   37 1
    17    9   14 ar
    18    9   10 ar
    19   10   11 ar
    20   10   38 1
    21   11   12 ar
    22   11   39 1
    23   12   13 ar
    24   12   31 1
    25   13   14 ar
    26   13   40 1
    27   14   15 1
    28   15   16 1
    29   16   17 1
    30   16   41 1
    31   17   22 ar
    32   17   18 ar
    33   18   19 ar
    34   18   42 1
    35   19   20 ar
    36   19   43 1
    37   20   21 ar
    38   20   23 1
    39   21   22 ar
    40   21   44 1
    41   22   45 1
    42   23   24 1
    43   24   25 1
    44   24   46 1
    45   24   47 1
    46   25   26 1
    47   25   48 1
    48   25   49 1
    49   26   30 1
    50   26   27 1
    51   26   59 1
    52   27   28 1
    53   27   50 1
    54   27   51 1
    55   28   29 1
    56   28   52 1
    57   28   53 1
    58   29   30 1
    59   29   54 1
    60   29   55 1
    61   30   56 1
    62   30   57 1
    63   31   58 1
@<TRIPOS>MOLECULE
CHEMBL185083
   64    69     0     0     0
SMALL
USER_CHARGES

@<TRIPOS>ATOM
      1 C1          1.1631   -0.6117   -0.4390 C.ar      1 <0>        -0.0873
      2 C2          2.3518    0.0921   -0.4484 C.ar      1 <0>        -0.1389
      3 C3          2.3800    1.4096   -0.0147 C.ar      1 <0>         0.1156
      4 C4          1.2137    2.0170    0.4273 C.ar      1 <0>        -0.1461
      5 C5          0.0275    1.3089    0.4346 C.ar      1 <0>        -0.0837
      6 C6          0.0021   -0.0041    0.0020 C.ar      1 <0>        -0.0894
      7 C7         -1.2934   -0.7740    0.0107 C.3       1 <0>        -0.0643
      8 H1         -2.1334   -0.0869    0.1120 H         1 <0>         0.1382
      9 C8         -1.2969   -1.7821    1.1721 C.3       1 <0>         0.1498
     10 H2         -2.1779   -2.4197    1.0986 H         1 <0>         0.0961
     11 O1         -0.1255   -2.5802    1.0967 O.3       1 <0>        -0.3050
     12 C9          0.1551   -3.3416    0.0132 C.ar      1 <0>         0.1211
     13 C10         0.9986   -4.4351    0.1946 C.ar      1 <0>        -0.1141
     14 C11         1.3394   -5.2447   -0.8692 C.ar      1 <0>        -0.1061
     15 C12         0.8443   -4.9772   -2.1372 C.ar      1 <0>         0.0985
     16 C13        -0.0005   -3.8960   -2.3286 C.ar      1 <0>        -0.0901
     17 C14        -0.3494   -3.0850   -1.2568 C.ar      1 <0>        -0.1477
     18 S1         -1.4568   -1.7323   -1.5285 S.3       1 <0>        -0.0841
     19 O2          1.1866   -5.7716   -3.1864 O.3       1 <0>        -0.4915
     20 C15        -1.3198   -1.0400    2.4835 C.ar      1 <0>        -0.1052
     21 C16        -0.1522   -0.5024    2.9927 C.ar      1 <0>        -0.0347
     22 C17        -0.1704    0.1779    4.1949 C.ar      1 <0>        -0.1424
     23 C18        -1.3617    0.3218    4.8912 C.ar      1 <0>         0.1245
     24 C19        -2.5320   -0.2182    4.3779 C.ar      1 <0>        -0.2041
     25 C20        -2.5094   -0.8931    3.1727 C.ar      1 <0>        -0.0587
     26 O3         -1.3822    0.9902    6.0743 O.3       1 <0>        -0.3235
     27 C21        -2.6441    1.0995    6.7359 C.3       1 <0>         0.0297
     28 C22        -2.4698    1.8785    8.0411 C.3       1 <0>         0.0009
     29 N1         -2.0692    3.2589    7.7377 N.4       1 <0>        -0.4095
     30 C23        -0.6099    3.4245    7.5800 C.3       1 <0>         0.0238
     31 C24        -0.7454    4.7505    8.3184 C.3       1 <0>        -0.1413
     32 C25        -1.9900    4.1225    8.9334 C.3       1 <0>         0.0257
     33 C26        -0.7942    6.0856    7.5800 C.3       1 <0>        -0.1194
     34 C27        -0.1896    6.7091    8.8518 C.3       1 <0>        -0.1423
     35 C28         0.3827    5.3168    9.1767 C.3       1 <0>        -0.1130
     36 O4          3.5482    2.1039   -0.0225 O.3       1 <0>        -0.4999
     37 H3          1.1398   -1.6359   -0.7807 H         1 <0>         0.1323
     38 H4          3.2585   -0.3831   -0.7926 H         1 <0>         0.1315
     39 H5          1.2331    3.0424    0.7657 H         1 <0>         0.1292
     40 H6         -0.8807    1.7813    0.7787 H         1 <0>         0.1234
     41 H7          1.3899   -4.6512    1.1778 H         1 <0>         0.1413
     42 H8          1.9942   -6.0894   -0.7144 H         1 <0>         0.1429
     43 H9         -0.3883   -3.6831   -3.3139 H         1 <0>         0.1405
     44 H10         0.5878   -6.5179   -3.3264 H         1 <0>         0.3946
     45 H11         0.7750   -0.6147    2.4504 H         1 <0>         0.1384
     46 H12         0.7420    0.5970    4.5927 H         1 <0>         0.1343
     47 H13        -3.4607   -0.1075    4.9180 H         1 <0>         0.1310
     48 H14        -3.4210   -1.3098    2.7705 H         1 <0>         0.1343
     49 H15        -3.3483    1.6246    6.0906 H         1 <0>         0.0846
     50 H16        -3.0265    0.1028    6.9560 H         1 <0>         0.1082
     51 H17        -3.4123    1.8857    8.5886 H         1 <0>         0.1486
     52 H18        -1.7003    1.4021    8.6486 H         1 <0>         0.1407
     53 H19        -0.0264    2.6814    8.1235 H         1 <0>         0.1507
     54 H20        -0.2940    3.5343    6.5426 H         1 <0>         0.1358
     55 H21        -2.8265    4.8151    9.0261 H         1 <0>         0.1380
     56 H22        -1.7910    3.5739    9.8540 H         1 <0>         0.1537
     57 H23        -0.1342    6.1312    6.7138 H         1 <0>         0.1051
     58 H24        -1.8057    6.4288    7.3625 H         1 <0>         0.0822
     59 H25         0.5755    7.4583    8.6484 H         1 <0>         0.0856
     60 H26        -0.9374    7.0508    9.5675 H         1 <0>         0.0901
     61 H27         0.3083    5.0479   10.2304 H         1 <0>         0.0867
     62 H28         1.3763    5.1445    8.7630 H         1 <0>         0.1043
     63 H29         3.7178    2.5792   -0.8474 H         1 <0>         0.3955
     64 H30        -2.6028    3.6661    6.9844 H         1 <0>         0.4349
@<TRIPOS>BOND
     1    1    6 ar
     2    1    2 ar
     3    1   37 1
     4    2    3 ar
     5    2   38 1
     6    3    4 ar
     7    3   36 1
     8    4    5 ar
     9    4   39 1
    10    5    6 ar
    11    5   40 1
    12    6    7 1
    13    7    8 1
    14    7   18 1
    15    7    9 1
    16    9   10 1
    17    9   11 1
    18    9   20 1
    19   11   12 1
    20   12   17 ar
    21   12   13 ar
    22   13   14 ar
    23   13   41 1
    24   14   15 ar
    25   14   42 1
    26   15   16 ar
    27   15   19 1
    28   16   17 ar
    29   16   43 1
    30   17   18 1
    31   19   44 1
    32   20   25 ar
    33   20   21 ar
    34   21   22 ar
    35   21   45 1
    36   22   23 ar
    37   22   46 1
    38   23   24 ar
    39   23   26 1
    40   24   25 ar
    41   24   47 1
    42   25   48 1
    43   26   27 1
    44   27   28 1
    45   27   49 1
    46   27   50 1
    47   28   29 1
    48   28   51 1
    49   28   52 1
    50   29   32 1
    51   29   30 1
    52   29   64 1
    53   30   31 1
    54   30   53 1
    55   30   54 1
    56   31   35 1
    57   31   32 1
    58   31   33 1
    59   32   55 1
    60   32   56 1
    61   33   34 1
    62   33   57 1
    63   33   58 1
    64   34   35 1
    65   34   59 1
    66   34   60 1
    67   35   61 1
    68   35   62 1
    69   36   63 1
@<TRIPOS>MOLECULE
CHEMBL150466
   61    64     0     0     0
SMALL
USER_CHARGES

@<TRIPOS>ATOM
      1 C1         -0.0167    1.3784    0.0096 C.ar      1 <0>        -0.0946
      2 C2          1.1695    2.0865    0.0021 C.ar      1 <0>        -0.1426
      3 C3          2.3802    1.4093   -0.0131 C.ar      1 <0>         0.1117
      4 C4          2.3963    0.0221   -0.0206 C.ar      1 <0>        -0.1424
      5 C5          1.2074   -0.6814   -0.0130 C.ar      1 <0>        -0.0943
      6 C6          0.0021   -0.0041    0.0020 C.ar      1 <0>        -0.0990
      7 C7         -1.2934   -0.7740    0.0107 C.3       1 <0>        -0.0896
      8 C8         -1.7461   -1.0268   -1.4288 C.3       1 <0>         0.1361
      9 N1         -3.0054   -1.7753   -1.4203 N.pl3     1 <0>        -0.6765
     10 C9         -3.6104   -2.1214   -2.6115 C.ar      1 <0>         0.6458
     11 N2         -4.7562   -2.7960   -2.6037 N.ar      1 <0>        -0.6567
     12 C10        -5.3393   -3.1296   -3.7509 C.ar      1 <0>         0.6415
     13 N3         -4.7770   -2.7888   -4.9062 N.ar      1 <0>        -0.6186
     14 C11        -3.6310   -2.1141   -4.9143 C.ar      1 <0>         0.4111
     15 N4         -3.0505   -1.7757   -3.7662 N.ar      1 <0>        -0.6267
     16 S1         -2.8850   -1.6627   -6.4454 S.3       1 <0>         0.0595
     17 C12        -1.3780   -0.7795   -5.9559 C.3       1 <0>        -0.1186
     18 C13        -0.6237   -0.3255   -7.2072 C.3       1 <0>         0.0740
     19 O1          0.5634    0.3703   -6.8215 O.3       1 <0>        -0.3040
     20 C14         1.3536    0.8435   -7.8211 C.ar      1 <0>         0.1324
     21 C15         0.9906    0.6470   -9.1455 C.ar      1 <0>        -0.1967
     22 C16         1.7951    1.1286  -10.1600 C.ar      1 <0>        -0.0686
     23 C17         2.9625    1.8062   -9.8559 C.ar      1 <0>        -0.0701
     24 C18         3.3265    2.0028   -8.5355 C.ar      1 <0>        -0.0683
     25 C19         2.5213    1.5285   -7.5181 C.ar      1 <0>        -0.1351
     26 Cl1         3.9720    2.4100  -11.1325 Cl        1 <0>        -0.0640
     27 N5         -6.5284   -3.8302   -3.7424 N.pl3     1 <0>        -0.5955
     28 C20        -7.1717   -4.2130   -2.4761 C.3       1 <0>         0.1041
     29 C21        -8.6400   -3.7776   -2.5261 C.3       1 <0>        -0.0213
     30 N6         -9.2760   -4.3410   -3.7236 N.4       1 <0>        -0.5059
     31 C22        -8.6561   -3.7794   -4.9304 C.3       1 <0>        -0.0212
     32 C23        -7.1915   -4.2100   -4.9994 C.3       1 <0>         0.1025
     33 O2          3.5484    2.1036   -0.0209 O.3       1 <0>        -0.4991
     34 H1         -0.9594    1.9052    0.0259 H         1 <0>         0.1263
     35 H2          1.1543    3.1664    0.0076 H         1 <0>         0.1311
     36 H3          3.3375   -0.5074   -0.0328 H         1 <0>         0.1313
     37 H4          1.2194   -1.7613   -0.0189 H         1 <0>         0.1267
     38 H5         -1.1460   -1.7274    0.5180 H         1 <0>         0.0824
     39 H6         -2.0553   -0.1973    0.5352 H         1 <0>         0.0820
     40 H7         -1.8934   -0.0734   -1.9361 H         1 <0>         0.0764
     41 H8         -0.9842   -1.6035   -1.9533 H         1 <0>         0.0766
     42 H9         -3.4140   -2.0276   -0.5775 H         1 <0>         0.4184
     43 H10        -1.6455    0.0911   -5.3570 H         1 <0>         0.1106
     44 H11        -0.7425   -1.4428   -5.3692 H         1 <0>         0.1108
     45 H12        -0.3563   -1.1960   -7.8061 H         1 <0>         0.0774
     46 H13        -1.2593    0.3378   -7.7939 H         1 <0>         0.0771
     47 H14         0.0798    0.1175   -9.3833 H         1 <0>         0.1367
     48 H15         1.5128    0.9758  -11.1912 H         1 <0>         0.1384
     49 H16         4.2382    2.5316   -8.3001 H         1 <0>         0.1433
     50 H17         2.8032    1.6863   -6.4876 H         1 <0>         0.1422
     51 H18        -7.1144   -5.2940   -2.3482 H         1 <0>         0.0958
     52 H19        -6.6704   -3.7159   -1.6456 H         1 <0>         0.1411
     53 H20        -9.1565   -4.1380   -1.6365 H         1 <0>         0.1485
     54 H21        -8.6954   -2.6896   -2.5629 H         1 <0>         0.1343
     55 H22        -9.1616   -5.3435   -3.7236 H         1 <0>         0.4294
     56 H23        -9.1845   -4.1412   -5.8124 H         1 <0>         0.1499
     57 H24        -8.7110   -2.6914   -4.8945 H         1 <0>         0.1347
     58 H25        -6.7033   -3.7110   -5.8365 H         1 <0>         0.1439
     59 H26        -7.1363   -5.2907   -5.1307 H         1 <0>         0.0962
     60 H27         3.8951    2.3001    0.8601 H         1 <0>         0.3946
     61 H28       -10.2599   -4.1173   -3.7172 H         1 <0>         0.4347
@<TRIPOS>BOND
     1    1    6 ar
     2    1    2 ar
     3    1   34 1
     4    2    3 ar
     5    2   35 1
     6    3    4 ar
     7    3   33 1
     8    4    5 ar
     9    4   36 1
    10    5    6 ar
    11    5   37 1
    12    6    7 1
    13    7    8 1
    14    7   38 1
    15    7   39 1
    16    8    9 1
    17    8   40 1
    18    8   41 1
    19    9   10 1
    20    9   42 1
    21   10   15 ar
    22   10   11 ar
    23   11   12 ar
    24   12   13 ar
    25   12   27 1
    26   13   14 ar
    27   14   15 ar
    28   14   16 1
    29   16   17 1
    30   17   18 1
    31   17   43 1
    32   17   44 1
    33   18   19 1
    34   18   45 1
    35   18   46 1
    36   19   20 1
    37   20   25 ar
    38   20   21 ar
    39   21   22 ar
    40   21   47 1
    41   22   23 ar
    42   22   48 1
    43   23   24 ar
    44   23   26 1
    45   24   25 ar
    46   24   49 1
    47   25   50 1
    48   27   32 1
    49   27   28 1
    50   28   29 1
    51   28   51 1
    52   28   52 1
    53   29   30 1
    54   29   53 1
    55   29   54 1
    56   30   31 1
    57   30   55 1
    58   30   61 1
    59   31   32 1
    60   31   56 1
    61   31   57 1
    62   32   58 1
    63   32   59 1
    64   33   60 1
@<TRIPOS>MOLECULE
CHEMBL38171
   81    86     0     0     0
SMALL
USER_CHARGES

@<TRIPOS>ATOM
      1 C1         -0.0791    1.7306    0.4207 C.3       1 <0>        -0.1271
      2 C2          0.0454    0.2280    0.1826 C.3       1 <0>        -0.0472
      3 C3         -1.2787   -0.4627    0.4330 C.3       1 <0>        -0.1060
      4 C4         -1.5838   -0.4379    1.9340 C.3       1 <0>        -0.1080
      5 C5         -0.4766   -1.1121    2.7413 C.3       1 <0>        -0.0323
      6 C6         -0.8493   -1.1019    4.1985 C.ar      1 <0>        -0.1075
      7 C7         -1.8786   -1.9438    4.6057 C.ar      1 <0>        -0.0719
      8 C8         -2.2708   -1.9870    5.9261 C.ar      1 <0>        -0.2034
      9 C9         -1.6317   -1.1839    6.8599 C.ar      1 <0>         0.1301
     10 C10        -0.6075   -0.3456    6.4548 C.ar      1 <0>        -0.1543
     11 C11        -0.2177   -0.3022    5.1231 C.ar      1 <0>        -0.0350
     12 C12         0.8973    0.6336    4.7477 C.3       1 <0>        -0.0814
     13 C13         0.8919    0.9089    3.2356 C.3       1 <0>        -0.0638
     14 H1          0.0013    1.4943    3.0064 H         1 <0>         0.1044
     15 C14         0.8780   -0.4204    2.5066 C.3       1 <0>        -0.0394
     16 C15         1.1414   -0.4305    1.0395 C.3       1 <0>        -0.0802
     17 C16         2.4185    0.1665    0.4525 C.3       1 <0>        -0.1194
     18 C17         2.1422    0.0732   -1.0796 C.3       1 <0>        -0.1577
     19 C18         0.6035    0.0207   -1.2391 C.3       1 <0>         0.1043
     20 H2          0.2887   -0.9487   -1.6167 H         1 <0>         0.0582
     21 O1          0.1503    1.0707   -2.0920 O.3       1 <0>        -0.5579
     22 S1          2.3791    1.8722    2.8447 S.3       1 <0>        -0.0758
     23 C19         2.0536    3.4590    3.5379 C.ar      1 <0>        -0.1091
     24 C20         0.8047    3.7386    4.0785 C.ar      1 <0>        -0.0959
     25 C21         0.5507    4.9825    4.6215 C.ar      1 <0>        -0.1181
     26 C22         1.5420    5.9529    4.6273 C.ar      1 <0>         0.1028
     27 C23         2.7893    5.6749    4.0879 C.ar      1 <0>        -0.1808
     28 C24         3.0473    4.4297    3.5495 C.ar      1 <0>        -0.0617
     29 O2          1.2905    7.1779    5.1620 O.3       1 <0>        -0.3283
     30 C25         2.3567    8.1289    5.1346 C.3       1 <0>         0.0256
     31 C26         1.8896    9.4374    5.7753 C.3       1 <0>        -0.0009
     32 N1          1.5815    9.2058    7.1929 N.4       1 <0>        -0.3841
     33 C27         0.9872   10.4187    7.7674 C.3       1 <0>        -0.0071
     34 C28         0.5899   10.1570    9.2218 C.3       1 <0>        -0.1467
     35 C29         1.8355    9.7680   10.0233 C.3       1 <0>        -0.1389
     36 C30         2.4890    8.5461    9.3713 C.3       1 <0>        -0.1455
     37 C31         2.8159    8.8675    7.9114 C.3       1 <0>        -0.0131
     38 O3         -2.0091   -1.2202    8.1647 O.3       1 <0>        -0.3185
     39 C32        -3.0735   -2.1098    8.5077 C.3       1 <0>         0.0262
     40 H3          0.8964    2.2004    0.2949 H         1 <0>         0.0623
     41 H4         -0.7819    2.1550   -0.2962 H         1 <0>         0.0627
     42 H5         -0.4405    1.9093    1.4334 H         1 <0>         0.0434
     43 H6         -2.0728    0.0541   -0.1134 H         1 <0>         0.0701
     44 H7         -1.2261   -1.4981    0.0849 H         1 <0>         0.0640
     45 H8         -1.7109    0.5853    2.2756 H         1 <0>         0.0632
     46 H9         -2.5188   -0.9780    2.1102 H         1 <0>         0.0654
     47 H10        -0.3885   -2.1515    2.4064 H         1 <0>         0.0862
     48 H11        -2.3750   -2.5694    3.8785 H         1 <0>         0.1262
     49 H12        -3.0724   -2.6429    6.2330 H         1 <0>         0.1301
     50 H13        -0.1077    0.2787    7.1807 H         1 <0>         0.1274
     51 H14         0.7747    1.5778    5.2760 H         1 <0>         0.0805
     52 H15         1.8537    0.1879    5.0181 H         1 <0>         0.0938
     53 H16         1.6434   -1.0672    2.9888 H         1 <0>         0.0793
     54 H17         1.1596   -1.5167    0.7422 H         1 <0>         0.0703
     55 H18         2.5749    1.2026    0.7237 H         1 <0>         0.0949
     56 H19         3.2875   -0.4402    0.7140 H         1 <0>         0.0659
     57 H20         2.5426    0.9549   -1.5791 H         1 <0>         0.0739
     58 H21         2.5971   -0.8293   -1.4830 H         1 <0>         0.0672
     59 H22         0.4658    1.0009   -3.0034 H         1 <0>         0.3758
     60 H23         0.0327    2.9833    4.0737 H         1 <0>         0.1353
     61 H24        -0.4202    5.2002    5.0415 H         1 <0>         0.1341
     62 H25         3.5602    6.4312    4.0926 H         1 <0>         0.1306
     63 H26         4.0200    4.2120    3.1336 H         1 <0>         0.1350
     64 H27         3.2084    7.7361    5.6900 H         1 <0>         0.0859
     65 H28         2.6511    8.3150    4.1017 H         1 <0>         0.1091
     66 H29         2.6788   10.1846    5.6924 H         1 <0>         0.1487
     67 H30         0.9961    9.7942    5.2629 H         1 <0>         0.1424
     68 H31         1.7129   11.2312    7.7300 H         1 <0>         0.1291
     69 H32         0.1027   10.6962    7.1939 H         1 <0>         0.1309
     70 H33         0.1506   11.0593    9.6471 H         1 <0>         0.1129
     71 H34        -0.1360    9.3449    9.2603 H         1 <0>         0.0879
     72 H35         2.5404   10.5994   10.0279 H         1 <0>         0.0820
     73 H36         1.5493    9.5256   11.0468 H         1 <0>         0.0946
     74 H37         3.4070    8.2969    9.9035 H         1 <0>         0.1122
     75 H38         1.8024    7.7005    9.4129 H         1 <0>         0.0879
     76 H39         3.2815    7.9997    7.4442 H         1 <0>         0.1275
     77 H40         3.5026    9.7130    7.8709 H         1 <0>         0.1301
     78 H41        -2.7882   -3.1315    8.2568 H         1 <0>         0.0575
     79 H42        -3.2745   -2.0408    9.5768 H         1 <0>         0.1023
     80 H43        -3.9697   -1.8358    7.9511 H         1 <0>         0.0565
     81 H44         0.9267    8.4423    7.2733 H         1 <0>         0.4294
@<TRIPOS>BOND
     1    1    2 1
     2    1   40 1
     3    1   41 1
     4    1   42 1
     5    2   16 1
     6    2   19 1
     7    2    3 1
     8    3    4 1
     9    3   43 1
    10    3   44 1
    11    4    5 1
    12    4   45 1
    13    4   46 1
    14    5   15 1
    15    5    6 1
    16    5   47 1
    17    6   11 ar
    18    6    7 ar
    19    7    8 ar
    20    7   48 1
    21    8    9 ar
    22    8   49 1
    23    9   10 ar
    24    9   38 1
    25   10   11 ar
    26   10   50 1
    27   11   12 1
    28   12   13 1
    29   12   51 1
    30   12   52 1
    31   13   14 1
    32   13   15 1
    33   13   22 1
    34   15   16 1
    35   15   53 1
    36   16   17 1
    37   16   54 1
    38   17   18 1
    39   17   55 1
    40   17   56 1
    41   18   19 1
    42   18   57 1
    43   18   58 1
    44   19   20 1
    45   19   21 1
    46   21   59 1
    47   22   23 1
    48   23   28 ar
    49   23   24 ar
    50   24   25 ar
    51   24   60 1
    52   25   26 ar
    53   25   61 1
    54   26   27 ar
    55   26   29 1
    56   27   28 ar
    57   27   62 1
    58   28   63 1
    59   29   30 1
    60   30   31 1
    61   30   64 1
    62   30   65 1
    63   31   32 1
    64   31   66 1
    65   31   67 1
    66   32   37 1
    67   32   33 1
    68   32   81 1
    69   33   34 1
    70   33   68 1
    71   33   69 1
    72   34   35 1
    73   34   70 1
    74   34   71 1
    75   35   36 1
    76   35   72 1
    77   35   73 1
    78   36   37 1
    79   36   74 1
    80   36   75 1
    81   37   76 1
    82   37   77 1
    83   38   39 1
    84   39   78 1
    85   39   79 1
    86   39   80 1
@<TRIPOS>MOLECULE
CHEMBL38171__1
   81    86     0     0     0
SMALL
USER_CHARGES

@<TRIPOS>ATOM
      1 C1         -0.0862    1.7498    0.4023 C.3       1 <0>        -0.1250
      2 C2          0.0362    0.2428    0.1679 C.3       1 <0>        -0.0398
      3 C3         -1.2961   -0.4773    0.3918 C.3       1 <0>        -0.1125
      4 C4         -1.6542   -0.4923    1.8751 C.3       1 <0>        -0.1097
      5 C5         -0.5851   -1.2878    2.6333 C.3       1 <0>        -0.0312
      6 C6         -0.9697   -1.3534    4.0901 C.ar      1 <0>        -0.1077
      7 C7         -1.9424   -2.2735    4.4603 C.ar      1 <0>        -0.0715
      8 C8         -2.3430   -2.3799    5.7750 C.ar      1 <0>        -0.2039
      9 C9         -1.7696   -1.5605    6.7370 C.ar      1 <0>         0.1298
     10 C10        -0.7989   -0.6455    6.3674 C.ar      1 <0>        -0.1547
     11 C11        -0.3949   -0.5422    5.0428 C.ar      1 <0>        -0.0349
     12 C12         0.6786    0.4629    4.7161 C.3       1 <0>        -0.0772
     13 C13         0.7108    0.7498    3.2159 C.3       1 <0>        -0.0762
     14 H1         -0.1848    1.3003    2.9280 H         1 <0>         0.1078
     15 C14         0.7566   -0.5857    2.4703 C.3       1 <0>        -0.0478
     16 C15         1.1390   -0.3852    1.0383 C.3       1 <0>        -0.0803
     17 C16         1.4465   -1.7154    0.3251 C.3       1 <0>        -0.1178
     18 C17         1.3761   -1.3465   -1.1744 C.3       1 <0>        -0.1581
     19 C18         0.4991   -0.0848   -1.2763 C.3       1 <0>         0.1046
     20 H2         -0.3653   -0.2800   -1.9110 H         1 <0>         0.0572
     21 O1          1.2619    1.0016   -1.8054 O.3       1 <0>        -0.5603
     22 S1          2.1848    1.7269    2.8121 S.3       1 <0>        -0.0797
     23 C19         1.8429    3.3156    3.4933 C.ar      1 <0>        -0.1037
     24 C20         0.5925    3.5850    4.0353 C.ar      1 <0>        -0.0960
     25 C21         0.3256    4.8304    4.5688 C.ar      1 <0>        -0.1181
     26 C22         1.3054    5.8122    4.5636 C.ar      1 <0>         0.1027
     27 C23         2.5543    5.5443    4.0226 C.ar      1 <0>        -0.1803
     28 C24         2.8253    4.2978    3.4938 C.ar      1 <0>        -0.0614
     29 O2          1.0413    7.0385    5.0890 O.3       1 <0>        -0.3282
     30 C25         2.0962    8.0017    5.0504 C.3       1 <0>         0.0255
     31 C26         1.6158    9.3099    5.6818 C.3       1 <0>        -0.0008
     32 N1          1.3160    9.0868    7.1025 N.4       1 <0>        -0.3841
     33 C27         0.7103   10.2978    7.6692 C.3       1 <0>        -0.0070
     34 C28         0.3219   10.0439    9.1274 C.3       1 <0>        -0.1467
     35 C29         1.5750    9.6758    9.9270 C.3       1 <0>        -0.1389
     36 C30         2.2397    8.4559    9.2826 C.3       1 <0>        -0.1454
     37 C31         2.5571    8.7686    7.8187 C.3       1 <0>        -0.0131
     38 O3         -2.1593   -1.6556    8.0354 O.3       1 <0>        -0.3186
     39 C32        -3.1662   -2.6224    8.3413 C.3       1 <0>         0.0263
     40 H3          0.8920    2.2163    0.2861 H         1 <0>         0.0727
     41 H4         -0.7800    2.1751   -0.3230 H         1 <0>         0.0508
     42 H5         -0.4580    1.9317    1.4106 H         1 <0>         0.0457
     43 H6         -2.0808    0.0378   -0.1623 H         1 <0>         0.0665
     44 H7         -1.2157   -1.5027    0.0310 H         1 <0>         0.0683
     45 H8         -1.6862    0.5294    2.2536 H         1 <0>         0.0644
     46 H9         -2.6267   -0.9652    2.0115 H         1 <0>         0.0694
     47 H10        -0.5214   -2.2958    2.2233 H         1 <0>         0.0913
     48 H11        -2.3889   -2.9109    3.7115 H         1 <0>         0.1262
     49 H12        -3.0995   -3.0980    6.0552 H         1 <0>         0.1298
     50 H13        -0.3524   -0.0067    7.1151 H         1 <0>         0.1272
     51 H14         0.4790    1.3893    5.2547 H         1 <0>         0.0794
     52 H15         1.6461    0.0689    5.0272 H         1 <0>         0.0935
     53 H16         1.5221   -1.2065    2.9357 H         1 <0>         0.0804
     54 H17         2.0290    0.2425    0.9933 H         1 <0>         0.0908
     55 H18         2.4436   -2.0695    0.5868 H         1 <0>         0.0689
     56 H19         0.6949   -2.4655    0.5715 H         1 <0>         0.0699
     57 H20         2.3760   -1.1379   -1.5549 H         1 <0>         0.0745
     58 H21         0.9239   -2.1621   -1.7387 H         1 <0>         0.0688
     59 H22         1.5800    0.8565   -2.7069 H         1 <0>         0.3760
     60 H23        -0.1707    2.8208    4.0391 H         1 <0>         0.1351
     61 H24        -0.6465    5.0401    4.9900 H         1 <0>         0.1342
     62 H25         3.3164    6.3096    4.0188 H         1 <0>         0.1308
     63 H26         3.7991    4.0880    3.0766 H         1 <0>         0.1354
     64 H27         2.9541    7.6235    5.6064 H         1 <0>         0.0859
     65 H28         2.3854    8.1827    4.0151 H         1 <0>         0.1092
     66 H29         2.3955   10.0659    5.5893 H         1 <0>         0.1487
     67 H30         0.7161    9.6515    5.1699 H         1 <0>         0.1423
     68 H31         1.4266   11.1180    7.6220 H         1 <0>         0.1290
     69 H32        -0.1795   10.5603    7.0971 H         1 <0>         0.1308
     70 H33        -0.1260   10.9447    9.5469 H         1 <0>         0.1128
     71 H34        -0.3946    9.2239    9.1757 H         1 <0>         0.0879
     72 H35         2.2704   10.5151    9.9217 H         1 <0>         0.0820
     73 H36         1.2957    9.4388   10.9536 H         1 <0>         0.0945
     74 H37         3.1627    8.2216    9.8131 H         1 <0>         0.1122
     75 H38         1.5630    7.6030    9.3342 H         1 <0>         0.0879
     76 H39         3.0306    7.9022    7.3570 H         1 <0>         0.1276
     77 H40         3.2340    9.6214    7.7683 H         1 <0>         0.1301
     78 H41        -2.8106   -3.6161    8.0688 H         1 <0>         0.0574
     79 H42        -3.3840   -2.5947    9.4090 H         1 <0>         0.1021
     80 H43        -4.0719   -2.3939    7.7797 H         1 <0>         0.0565
     81 H44         0.6703    8.3167    7.1920 H         1 <0>         0.4295
@<TRIPOS>BOND
     1    1    2 1
     2    1   40 1
     3    1   41 1
     4    1   42 1
     5    2   16 1
     6    2   19 1
     7    2    3 1
     8    3    4 1
     9    3   43 1
    10    3   44 1
    11    4    5 1
    12    4   45 1
    13    4   46 1
    14    5   15 1
    15    5    6 1
    16    5   47 1
    17    6   11 ar
    18    6    7 ar
    19    7    8 ar
    20    7   48 1
    21    8    9 ar
    22    8   49 1
    23    9   10 ar
    24    9   38 1
    25   10   11 ar
    26   10   50 1
    27   11   12 1
    28   12   13 1
    29   12   51 1
    30   12   52 1
    31   13   14 1
    32   13   15 1
    33   13   22 1
    34   15   16 1
    35   15   53 1
    36   16   17 1
    37   16   54 1
    38   17   18 1
    39   17   55 1
    40   17   56 1
    41   18   19 1
    42   18   57 1
    43   18   58 1
    44   19   20 1
    45   19   21 1
    46   21   59 1
    47   22   23 1
    48   23   28 ar
    49   23   24 ar
    50   24   25 ar
    51   24   60 1
    52   25   26 ar
    53   25   61 1
    54   26   27 ar
    55   26   29 1
    56   27   28 ar
    57   27   62 1
    58   28   63 1
    59   29   30 1
    60   30   31 1
    61   30   64 1
    62   30   65 1
    63   31   32 1
    64   31   66 1
    65   31   67 1
    66   32   37 1
    67   32   33 1
    68   32   81 1
    69   33   34 1
    70   33   68 1
    71   33   69 1
    72   34   35 1
    73   34   70 1
    74   34   71 1
    75   35   36 1
    76   35   72 1
    77   35   73 1
    78   36   37 1
    79   36   74 1
    80   36   75 1
    81   37   76 1
    82   37   77 1
    83   38   39 1
    84   39   78 1
    85   39   79 1
    86   39   80 1
@<TRIPOS>MOLECULE
CHEMBL38171__2
   81    86     0     0     0
SMALL
USER_CHARGES

@<TRIPOS>ATOM
      1 C1         -1.0145    1.2249    0.4309 C.3       1 <0>        -0.1373
      2 C2         -0.8164   -0.2905    0.3586 C.3       1 <0>        -0.0558
      3 C3         -2.1468   -0.9869    0.5549 C.3       1 <0>        -0.1049
      4 C4         -2.7374   -0.4949    1.8901 C.3       1 <0>        -0.1134
      5 C5         -1.7728   -0.7651    3.0359 C.3       1 <0>        -0.0408
      6 C6         -2.3187   -0.2845    4.3494 C.ar      1 <0>        -0.0971
      7 C7         -3.6896   -0.3549    4.5574 C.ar      1 <0>        -0.0754
      8 C8         -4.2415    0.0645    5.7490 C.ar      1 <0>        -0.2036
      9 C9         -3.4184    0.5597    6.7501 C.ar      1 <0>         0.1275
     10 C10        -2.0524    0.6332    6.5412 C.ar      1 <0>        -0.1544
     11 C11        -1.4979    0.2167    5.3383 C.ar      1 <0>        -0.0313
     12 C12        -0.0075    0.3537    5.1724 C.3       1 <0>        -0.0865
     13 C13         0.4957   -0.4514    3.9751 C.3       1 <0>        -0.0708
     14 H1          1.5249   -0.1718    3.7504 H         1 <0>         0.1028
     15 C14        -0.3985   -0.1345    2.7761 C.3       1 <0>        -0.0535
     16 C15         0.1375   -0.7461    1.4981 C.3       1 <0>        -0.0858
     17 C16         1.4861   -0.2154    0.9995 C.3       1 <0>        -0.1116
     18 C17         1.4501   -0.5433   -0.5183 C.3       1 <0>        -0.1560
     19 C18        -0.0460   -0.6457   -0.9076 C.3       1 <0>         0.1109
     20 H2         -0.2855   -1.6611   -1.2233 H         1 <0>         0.0587
     21 O1         -0.3511    0.2831   -1.9499 O.3       1 <0>        -0.5591
     22 S1          0.4114   -2.2241    4.3508 S.3       1 <0>        -0.0778
     23 C19         1.5668   -2.4369    5.6640 C.ar      1 <0>        -0.1041
     24 C20         2.2726   -1.3447    6.1527 C.ar      1 <0>        -0.1020
     25 C21         3.1779   -1.5126    7.1818 C.ar      1 <0>        -0.1183
     26 C22         3.3826   -2.7713    7.7277 C.ar      1 <0>         0.1016
     27 C23         2.6784   -3.8626    7.2405 C.ar      1 <0>        -0.1800
     28 C24         1.7684   -3.6960    6.2153 C.ar      1 <0>        -0.0625
     29 O2          4.2748   -2.9356    8.7410 O.3       1 <0>        -0.3280
     30 C25         4.4355   -4.2590    9.2556 C.3       1 <0>         0.0255
     31 C26         5.4722   -4.2463   10.3808 C.3       1 <0>        -0.0008
     32 N1          4.9665   -3.4452   11.5035 N.4       1 <0>        -0.3841
     33 C27         6.0220   -3.2991   12.5129 C.3       1 <0>        -0.0070
     34 C28         5.5276   -2.3982   13.6467 C.3       1 <0>        -0.1467
     35 C29         4.2886   -3.0287   14.2890 C.3       1 <0>        -0.1389
     36 C30         3.2215   -3.2448   13.2120 C.3       1 <0>        -0.1456
     37 C31         3.8013   -4.1144   12.0944 C.3       1 <0>        -0.0132
     38 O3         -3.9513    0.9704    7.9309 O.3       1 <0>        -0.3198
     39 C32        -5.3691    0.8644    8.0746 C.3       1 <0>         0.0268
     40 H3         -0.0453    1.7209    0.3794 H         1 <0>         0.0552
     41 H4         -1.6342    1.5506   -0.4046 H         1 <0>         0.0645
     42 H5         -1.5052    1.4828    1.3694 H         1 <0>         0.0588
     43 H6         -2.8210   -0.7337   -0.2634 H         1 <0>         0.0718
     44 H7         -1.9975   -2.0660    0.5917 H         1 <0>         0.0648
     45 H8         -2.9275    0.5764    1.8257 H         1 <0>         0.0732
     46 H9         -3.6762   -1.0148    2.0808 H         1 <0>         0.0691
     47 H10        -1.6381   -1.8438    3.1153 H         1 <0>         0.0842
     48 H11        -4.3297   -0.7416    3.7783 H         1 <0>         0.1280
     49 H12        -5.3091    0.0083    5.9022 H         1 <0>         0.1288
     50 H13        -1.4118    1.0182    7.3208 H         1 <0>         0.1248
     51 H14         0.2398    1.4049    5.0247 H         1 <0>         0.0924
     52 H15         0.4863   -0.0042    6.0758 H         1 <0>         0.0856
     53 H16        -0.5027    0.9453    2.6697 H         1 <0>         0.1028
     54 H17         0.1462   -1.8330    1.5798 H         1 <0>         0.0862
     55 H18         1.5604    0.8601    1.1600 H         1 <0>         0.0715
     56 H19         2.3097   -0.7369    1.4872 H         1 <0>         0.0658
     57 H20         1.9304    0.2545   -1.0848 H         1 <0>         0.0743
     58 H21         1.9519   -1.4921   -0.7081 H         1 <0>         0.0683
     59 H22         0.1106    0.1071   -2.7812 H         1 <0>         0.3770
     60 H23         2.1137   -0.3647    5.7276 H         1 <0>         0.1403
     61 H24         3.7270   -0.6637    7.5616 H         1 <0>         0.1347
     62 H25         2.8388   -4.8422    7.6660 H         1 <0>         0.1305
     63 H26         1.2170   -4.5450    5.8392 H         1 <0>         0.1345
     64 H27         3.4818   -4.6160    9.6443 H         1 <0>         0.0857
     65 H28         4.7732   -4.9206    8.4578 H         1 <0>         0.1090
     66 H29         5.6565   -5.2668   10.7165 H         1 <0>         0.1487
     67 H30         6.4016   -3.8111   10.0135 H         1 <0>         0.1425
     68 H31         6.2786   -4.2796   12.9141 H         1 <0>         0.1291
     69 H32         6.9042   -2.8532   12.0536 H         1 <0>         0.1309
     70 H33         6.3121   -2.2925   14.3960 H         1 <0>         0.1130
     71 H34         5.2709   -1.4173   13.2466 H         1 <0>         0.0879
     72 H35         4.5564   -3.9869   14.7341 H         1 <0>         0.0820
     73 H36         3.8991   -2.3636   15.0597 H         1 <0>         0.0946
     74 H37         2.3576   -3.7442   13.6507 H         1 <0>         0.1123
     75 H38         2.9169   -2.2815   12.8029 H         1 <0>         0.0879
     76 H39         3.0441   -4.2703   11.3260 H         1 <0>         0.1275
     77 H40         4.1053   -5.0774   12.5045 H         1 <0>         0.1302
     78 H41        -5.6685   -0.1779    7.9649 H         1 <0>         0.0559
     79 H42        -5.6623    1.2248    9.0606 H         1 <0>         0.1013
     80 H43        -5.8580    1.4654    7.3079 H         1 <0>         0.0572
     81 H44         4.6952   -2.5327   11.1690 H         1 <0>         0.4293
@<TRIPOS>BOND
     1    1    2 1
     2    1   40 1
     3    1   41 1
     4    1   42 1
     5    2   16 1
     6    2   19 1
     7    2    3 1
     8    3    4 1
     9    3   43 1
    10    3   44 1
    11    4    5 1
    12    4   45 1
    13    4   46 1
    14    5   15 1
    15    5    6 1
    16    5   47 1
    17    6   11 ar
    18    6    7 ar
    19    7    8 ar
    20    7   48 1
    21    8    9 ar
    22    8   49 1
    23    9   10 ar
    24    9   38 1
    25   10   11 ar
    26   10   50 1
    27   11   12 1
    28   12   13 1
    29   12   51 1
    30   12   52 1
    31   13   14 1
    32   13   15 1
    33   13   22 1
    34   15   16 1
    35   15   53 1
    36   16   17 1
    37   16   54 1
    38   17   18 1
    39   17   55 1
    40   17   56 1
    41   18   19 1
    42   18   57 1
    43   18   58 1
    44   19   20 1
    45   19   21 1
    46   21   59 1
    47   22   23 1
    48   23   28 ar
    49   23   24 ar
    50   24   25 ar
    51   24   60 1
    52   25   26 ar
    53   25   61 1
    54   26   27 ar
    55   26   29 1
    56   27   28 ar
    57   27   62 1
    58   28   63 1
    59   29   30 1
    60   30   31 1
    61   30   64 1
    62   30   65 1
    63   31   32 1
    64   31   66 1
    65   31   67 1
    66   32   37 1
    67   32   33 1
    68   32   81 1
    69   33   34 1
    70   33   68 1
    71   33   69 1
    72   34   35 1
    73   34   70 1
    74   34   71 1
    75   35   36 1
    76   35   72 1
    77   35   73 1
    78   36   37 1
    79   36   74 1
    80   36   75 1
    81   37   76 1
    82   37   77 1
    83   38   39 1
    84   39   78 1
    85   39   79 1
    86   39   80 1
@<TRIPOS>MOLECULE
CHEMBL38171__3
   81    86     0     0     0
SMALL
USER_CHARGES

@<TRIPOS>ATOM
      1 C1         -0.3882    0.8746   -0.3555 C.3       1 <0>        -0.1288
      2 C2         -0.3599   -0.6523   -0.2624 C.3       1 <0>        -0.0404
      3 C3         -1.7709   -1.2421   -0.2850 C.3       1 <0>        -0.1111
      4 C4         -2.4979   -1.0004    1.0369 C.3       1 <0>        -0.1102
      5 C5         -1.7075   -1.6944    2.1479 C.3       1 <0>        -0.0406
      6 C6         -2.4325   -1.6053    3.4612 C.ar      1 <0>        -0.0965
      7 C7         -3.8120   -1.7622    3.4610 C.ar      1 <0>        -0.0745
      8 C8         -4.5262   -1.6987    4.6384 C.ar      1 <0>        -0.2036
      9 C9         -3.8593   -1.4769    5.8348 C.ar      1 <0>         0.1274
     10 C10        -2.4847   -1.3170    5.8344 C.ar      1 <0>        -0.1544
     11 C11        -1.7670   -1.3760    4.6471 C.ar      1 <0>        -0.0313
     12 C12        -0.2771   -1.1689    4.7211 C.3       1 <0>        -0.0862
     13 C13         0.4090   -1.6287    3.4353 C.3       1 <0>        -0.0697
     14 H1          1.4441   -1.2872    3.4286 H         1 <0>         0.1018
     15 C14        -0.3415   -1.0228    2.2493 C.3       1 <0>        -0.0516
     16 C15         0.4222   -1.1310    0.9763 C.3       1 <0>        -0.0760
     17 C16         0.7711   -2.5915    0.6354 C.3       1 <0>        -0.1189
     18 C17         1.1268   -2.5354   -0.8682 C.3       1 <0>        -0.1583
     19 C18         0.4316   -1.2849   -1.4379 C.3       1 <0>         0.1036
     20 H2         -0.2509   -1.5684   -2.2391 H         1 <0>         0.0577
     21 O1          1.4064   -0.3613   -1.9265 O.3       1 <0>        -0.5612
     22 S1          0.3617   -3.4391    3.3303 S.3       1 <0>        -0.0680
     23 C19         1.3526   -3.9708    4.6868 C.ar      1 <0>        -0.1095
     24 C20         1.9399   -3.0340    5.5279 C.ar      1 <0>        -0.1030
     25 C21         2.7163   -3.4518    6.5907 C.ar      1 <0>        -0.1181
     26 C22         2.9099   -4.8063    6.8186 C.ar      1 <0>         0.1005
     27 C23         2.3240   -5.7426    5.9794 C.ar      1 <0>        -0.1799
     28 C24         1.5425   -5.3271    4.9194 C.ar      1 <0>        -0.0633
     29 O2          3.6751   -5.2167    7.8653 O.3       1 <0>        -0.3285
     30 C25         3.8321   -6.6262    8.0409 C.3       1 <0>         0.0257
     31 C26         4.7183   -6.8928    9.2592 C.3       1 <0>        -0.0006
     32 N1          4.0501   -6.3952   10.4691 N.4       1 <0>        -0.3840
     33 C27         4.9633   -6.5090   11.6126 C.3       1 <0>        -0.0070
     34 C28         4.3018   -5.9175   12.8593 C.3       1 <0>        -0.1467
     35 C29         3.0100   -6.6840   13.1574 C.3       1 <0>        -0.1389
     36 C30         2.0960   -6.6211   11.9303 C.3       1 <0>        -0.1454
     37 C31         2.8392   -7.1865   10.7180 C.3       1 <0>        -0.0131
     38 O3         -4.5530   -1.4173    7.0019 O.3       1 <0>        -0.3199
     39 C32        -5.9691   -1.5918    6.9246 C.3       1 <0>         0.0268
     40 H3          0.6316    1.2533   -0.4251 H         1 <0>         0.0667
     41 H4         -0.9483    1.1743   -1.2412 H         1 <0>         0.0555
     42 H5         -0.8678    1.2840    0.5336 H         1 <0>         0.0519
     43 H6         -2.3376   -0.7798   -1.0933 H         1 <0>         0.0680
     44 H7         -1.7059   -2.3152   -0.4652 H         1 <0>         0.0655
     45 H8         -2.5519    0.0697    1.2369 H         1 <0>         0.0707
     46 H9         -3.5037   -1.4171    0.9853 H         1 <0>         0.0718
     47 H10        -1.5737   -2.7455    1.8920 H         1 <0>         0.0904
     48 H11        -4.3305   -1.9352    2.5295 H         1 <0>         0.1276
     49 H12        -5.5993   -1.8206    4.6297 H         1 <0>         0.1288
     50 H13        -1.9656   -1.1449    6.7656 H         1 <0>         0.1247
     51 H14        -0.0708   -0.1100    4.8771 H         1 <0>         0.0925
     52 H15         0.1214   -1.7372    5.5616 H         1 <0>         0.0860
     53 H16        -0.4942    0.0386    2.4450 H         1 <0>         0.0883
     54 H17         1.3483   -0.5627    1.0635 H         1 <0>         0.0783
     55 H18         1.6271   -2.9282    1.2201 H         1 <0>         0.0780
     56 H19        -0.0885   -3.2405    0.8025 H         1 <0>         0.0726
     57 H20         2.2064   -2.4523   -0.9937 H         1 <0>         0.0727
     58 H21         0.7595   -3.4293   -1.3724 H         1 <0>         0.0672
     59 H22         1.9340   -0.6992   -2.6630 H         1 <0>         0.3766
     60 H23         1.7895   -1.9793    5.3505 H         1 <0>         0.1398
     61 H24         3.1732   -2.7237    7.2445 H         1 <0>         0.1341
     62 H25         2.4756   -6.7969    6.1575 H         1 <0>         0.1300
     63 H26         1.0827   -6.0563    4.2688 H         1 <0>         0.1339
     64 H27         2.8551   -7.0842    8.1951 H         1 <0>         0.0857
     65 H28         4.2975   -7.0534    7.1526 H         1 <0>         0.1088
     66 H29         4.8918   -7.9646    9.3548 H         1 <0>         0.1485
     67 H30         5.6720   -6.3801    9.1340 H         1 <0>         0.1423
     68 H31         5.1952   -7.5594   11.7886 H         1 <0>         0.1290
     69 H32         5.8834   -5.9657   11.3976 H         1 <0>         0.1309
     70 H33         4.9808   -6.0046   13.7076 H         1 <0>         0.1129
     71 H34         4.0697   -4.8670   12.6844 H         1 <0>         0.0879
     72 H35         3.2469   -7.7239   13.3826 H         1 <0>         0.0820
     73 H36         2.5059   -6.2307   14.0109 H         1 <0>         0.0946
     74 H37         1.1982   -7.2112   12.1145 H         1 <0>         0.1122
     75 H38         1.8180   -5.5852   11.7362 H         1 <0>         0.0879
     76 H39         2.1912   -7.1435    9.8426 H         1 <0>         0.1275
     77 H40         3.1164   -8.2225   10.9131 H         1 <0>         0.1300
     78 H41        -6.1920   -2.5712    6.5011 H         1 <0>         0.0559
     79 H42        -6.3990   -1.5217    7.9238 H         1 <0>         0.1012
     80 H43        -6.3967   -0.8157    6.2898 H         1 <0>         0.0571
     81 H44         3.7970   -5.4272   10.3384 H         1 <0>         0.4295
@<TRIPOS>BOND
     1    1    2 1
     2    1   40 1
     3    1   41 1
     4    1   42 1
     5    2   16 1
     6    2   19 1
     7    2    3 1
     8    3    4 1
     9    3   43 1
    10    3   44 1
    11    4    5 1
    12    4   45 1
    13    4   46 1
    14    5   15 1
    15    5    6 1
    16    5   47 1
    17    6   11 ar
    18    6    7 ar
    19    7    8 ar
    20    7   48 1
    21    8    9 ar
    22    8   49 1
    23    9   10 ar
    24    9   38 1
    25   10   11 ar
    26   10   50 1
    27   11   12 1
    28   12   13 1
    29   12   51 1
    30   12   52 1
    31   13   14 1
    32   13   15 1
    33   13   22 1
    34   15   16 1
    35   15   53 1
    36   16   17 1
    37   16   54 1
    38   17   18 1
    39   17   55 1
    40   17   56 1
    41   18   19 1
    42   18   57 1
    43   18   58 1
    44   19   20 1
    45   19   21 1
    46   21   59 1
    47   22   23 1
    48   23   28 ar
    49   23   24 ar
    50   24   25 ar
    51   24   60 1
    52   25   26 ar
    53   25   61 1
    54   26   27 ar
    55   26   29 1
    56   27   28 ar
    57   27   62 1
    58   28   63 1
    59   29   30 1
    60   30   31 1
    61   30   64 1
    62   30   65 1
    63   31   32 1
    64   31   66 1
    65   31   67 1
    66   32   37 1
    67   32   33 1
    68   32   81 1
    69   33   34 1
    70   33   68 1
    71   33   69 1
    72   34   35 1
    73   34   70 1
    74   34   71 1
    75   35   36 1
    76   35   72 1
    77   35   73 1
    78   36   37 1
    79   36   74 1
    80   36   75 1
    81   37   76 1
    82   37   77 1
    83   38   39 1
    84   39   78 1
    85   39   79 1
    86   39   80 1
@<TRIPOS>MOLECULE
CHEMBL38171__4
   81    86     0     0     0
SMALL
USER_CHARGES

@<TRIPOS>ATOM
      1 C1         -0.1699    1.3082    0.6259 C.3       1 <0>        -0.1318
      2 C2          0.1130   -0.1575    0.2879 C.3       1 <0>        -0.0463
      3 C3         -1.1603   -0.9604    0.2330 C.3       1 <0>        -0.1044
      4 C4         -1.4724   -1.5980    1.5943 C.3       1 <0>        -0.1075
      5 C5         -0.8164   -0.8118    2.7175 C.3       1 <0>        -0.0343
      6 C6         -1.2834   -1.2284    4.0832 C.ar      1 <0>        -0.1073
      7 C7         -2.5851   -1.6716    4.2483 C.ar      1 <0>        -0.0736
      8 C8         -3.0469   -2.0512    5.4921 C.ar      1 <0>        -0.2031
      9 C9         -2.1975   -1.9835    6.5876 C.ar      1 <0>         0.1285
     10 C10        -0.8975   -1.5387    6.4217 C.ar      1 <0>        -0.1546
     11 C11        -0.4321   -1.1563    5.1686 C.ar      1 <0>        -0.0365
     12 C12         0.9886   -0.6800    5.0736 C.3       1 <0>        -0.0799
     13 C13         1.3408   -0.0896    3.7031 C.3       1 <0>        -0.0591
     14 H1          0.9689    0.9318    3.6416 H         1 <0>         0.0983
     15 C14         0.7071   -0.9572    2.6295 C.3       1 <0>        -0.0438
     16 C15         1.1653   -0.7895    1.2223 C.3       1 <0>        -0.0783
     17 C16         2.4082    0.0486    0.9184 C.3       1 <0>        -0.1046
     18 C17         2.2993    0.3580   -0.5999 C.3       1 <0>        -0.1593
     19 C18         0.9088   -0.1687   -1.0441 C.3       1 <0>         0.0995
     20 H2          0.9768   -1.1841   -1.4239 H         1 <0>         0.0620
     21 O1          0.2972    0.7068   -1.9881 O.3       1 <0>        -0.5557
     22 S1          3.1514   -0.0914    3.5491 S.3       1 <0>        -0.0804
     23 C19         3.6782    1.1369    4.6973 C.ar      1 <0>        -0.1088
     24 C20         2.7422    1.9515    5.3219 C.ar      1 <0>        -0.0959
     25 C21         3.1562    2.9139    6.2216 C.ar      1 <0>        -0.1184
     26 C22         4.5060    3.0673    6.5017 C.ar      1 <0>         0.1032
     27 C23         5.4415    2.2544    5.8786 C.ar      1 <0>        -0.1807
     28 C24         5.0294    1.2876    4.9829 C.ar      1 <0>        -0.0616
     29 O2          4.9126    4.0157    7.3876 O.3       1 <0>        -0.3287
     30 C25         6.3174    4.1186    7.6287 C.3       1 <0>         0.0256
     31 C26         6.5803    5.2314    8.6453 C.3       1 <0>        -0.0005
     32 N1          5.9385    4.8900    9.9218 N.4       1 <0>        -0.3840
     33 C27         6.0631    6.0216   10.8484 C.3       1 <0>        -0.0070
     34 C28         5.3262    5.7026   12.1510 C.3       1 <0>        -0.1467
     35 C29         5.9405    4.4514   12.7853 C.3       1 <0>        -0.1389
     36 C30         5.8721    3.2964   11.7820 C.3       1 <0>        -0.1454
     37 C31         6.5887    3.7045   10.4931 C.3       1 <0>        -0.0128
     38 O3         -2.6378   -2.3571    7.8190 O.3       1 <0>        -0.3192
     39 C32        -3.9895   -2.8108    7.9147 C.3       1 <0>         0.0264
     40 H3          0.7183    1.9062    0.4218 H         1 <0>         0.0581
     41 H4         -0.9984    1.6683    0.0159 H         1 <0>         0.0618
     42 H5         -0.4312    1.3940    1.6806 H         1 <0>         0.0505
     43 H6         -1.9934   -0.3113   -0.0698 H         1 <0>         0.0691
     44 H7         -1.0624   -1.7483   -0.5273 H         1 <0>         0.0644
     45 H8         -2.5572   -1.6124    1.7409 H         1 <0>         0.0702
     46 H9         -1.1074   -2.6294    1.6130 H         1 <0>         0.0658
     47 H10        -1.0849    0.2371    2.6229 H         1 <0>         0.0880
     48 H11        -3.2565   -1.7196    3.4033 H         1 <0>         0.1292
     49 H12        -4.0614   -2.3996    5.6113 H         1 <0>         0.1303
     50 H13        -0.2342   -1.4977    7.2728 H         1 <0>         0.1264
     51 H14         1.1654    0.0798    5.8378 H         1 <0>         0.0804
     52 H15         1.6567   -1.5238    5.2679 H         1 <0>         0.0928
     53 H16         0.9289   -2.0132    2.9142 H         1 <0>         0.0768
     54 H17         1.3792   -1.8110    0.8274 H         1 <0>         0.0714
     55 H18         2.4056    0.9741    1.4857 H         1 <0>         0.0789
     56 H19         3.3111   -0.5320    1.1064 H         1 <0>         0.0727
     57 H20         2.3787    1.4292   -0.7709 H         1 <0>         0.0748
     58 H21         3.0857   -0.1661   -1.1429 H         1 <0>         0.0637
     59 H22         0.7498    0.7428   -2.8419 H         1 <0>         0.3771
     60 H23         1.6912    1.8325    5.1037 H         1 <0>         0.1360
     61 H24         2.4287    3.5475    6.7070 H         1 <0>         0.1345
     62 H25         6.4923    2.3750    6.0972 H         1 <0>         0.1309
     63 H26         5.7575    0.6518    4.5012 H         1 <0>         0.1352
     64 H27         6.6889    3.1722    8.0217 H         1 <0>         0.0862
     65 H28         6.8302    4.3507    6.6952 H         1 <0>         0.1091
     66 H29         7.6544    5.3394    8.7961 H         1 <0>         0.1486
     67 H30         6.1697    6.1694    8.2716 H         1 <0>         0.1422
     68 H31         7.1167    6.2013   11.0621 H         1 <0>         0.1290
     69 H32         5.6284    6.9120   10.3943 H         1 <0>         0.1309
     70 H33         5.4215    6.5432   12.8383 H         1 <0>         0.1129
     71 H34         4.2724    5.5230   11.9385 H         1 <0>         0.0879
     72 H35         6.9808    4.6475   13.0449 H         1 <0>         0.0820
     73 H36         5.3830    4.1871   13.6839 H         1 <0>         0.0946
     74 H37         6.3575    2.4171   12.2056 H         1 <0>         0.1122
     75 H38         4.8295    3.0668   11.5618 H         1 <0>         0.0879
     76 H39         6.5420    2.8844    9.7766 H         1 <0>         0.1274
     77 H40         7.6311    3.9336   10.7144 H         1 <0>         0.1300
     78 H41        -4.1254   -3.6846    7.2775 H         1 <0>         0.0572
     79 H42        -4.2112   -3.0767    8.9482 H         1 <0>         0.1021
     80 H43        -4.6629   -2.0170    7.5912 H         1 <0>         0.0565
     81 H44         4.9615    4.6933    9.7639 H         1 <0>         0.4296
@<TRIPOS>BOND
     1    1    2 1
     2    1   40 1
     3    1   41 1
     4    1   42 1
     5    2   16 1
     6    2   19 1
     7    2    3 1
     8    3    4 1
     9    3   43 1
    10    3   44 1
    11    4    5 1
    12    4   45 1
    13    4   46 1
    14    5   15 1
    15    5    6 1
    16    5   47 1
    17    6   11 ar
    18    6    7 ar
    19    7    8 ar
    20    7   48 1
    21    8    9 ar
    22    8   49 1
    23    9   10 ar
    24    9   38 1
    25   10   11 ar
    26   10   50 1
    27   11   12 1
    28   12   13 1
    29   12   51 1
    30   12   52 1
    31   13   14 1
    32   13   15 1
    33   13   22 1
    34   15   16 1
    35   15   53 1
    36   16   17 1
    37   16   54 1
    38   17   18 1
    39   17   55 1
    40   17   56 1
    41   18   19 1
    42   18   57 1
    43   18   58 1
    44   19   20 1
    45   19   21 1
    46   21   59 1
    47   22   23 1
    48   23   28 ar
    49   23   24 ar
    50   24   25 ar
    51   24   60 1
    52   25   26 ar
    53   25   61 1
    54   26   27 ar
    55   26   29 1
    56   27   28 ar
    57   27   62 1
    58   28   63 1
    59   29   30 1
    60   30   31 1
    61   30   64 1
    62   30   65 1
    63   31   32 1
    64   31   66 1
    65   31   67 1
    66   32   37 1
    67   32   33 1
    68   32   81 1
    69   33   34 1
    70   33   68 1
    71   33   69 1
    72   34   35 1
    73   34   70 1
    74   34   71 1
    75   35   36 1
    76   35   72 1
    77   35   73 1
    78   36   37 1
    79   36   74 1
    80   36   75 1
    81   37   76 1
    82   37   77 1
    83   38   39 1
    84   39   78 1
    85   39   79 1
    86   39   80 1
@<TRIPOS>MOLECULE
CHEMBL38171__5
   81    86     0     0     0
SMALL
USER_CHARGES

@<TRIPOS>ATOM
      1 C1         -1.5665    0.2710    0.4732 C.3       1 <0>        -0.1314
      2 C2         -1.0765   -1.1743    0.3634 C.3       1 <0>        -0.0459
      3 C3         -2.2750   -2.0867    0.2438 C.3       1 <0>        -0.1087
      4 C4         -1.8724   -3.5617    0.3078 C.3       1 <0>        -0.1130
      5 C5         -1.1517   -3.7956    1.6374 C.3       1 <0>        -0.0319
      6 C6         -0.8437   -5.2540    1.8289 C.ar      1 <0>        -0.1077
      7 C7         -1.8023   -6.1818    1.4437 C.ar      1 <0>        -0.0736
      8 C8         -1.5770   -7.5323    1.6040 C.ar      1 <0>        -0.2037
      9 C9         -0.3813   -7.9682    2.1568 C.ar      1 <0>         0.1294
     10 C10         0.5754   -7.0434    2.5378 C.ar      1 <0>        -0.1547
     11 C11         0.3492   -5.6838    2.3707 C.ar      1 <0>        -0.0369
     12 C12         1.4440   -4.7364    2.7857 C.3       1 <0>        -0.0756
     13 C13         0.9177   -3.3074    2.9109 C.3       1 <0>        -0.0739
     14 H1          0.2634   -3.2316    3.7794 H         1 <0>         0.1002
     15 C14         0.1314   -2.9720    1.6423 C.3       1 <0>        -0.0580
     16 C15        -0.1867   -1.4883    1.5818 C.3       1 <0>        -0.0776
     17 C16         1.1360   -0.7599    1.2029 C.3       1 <0>        -0.1041
     18 C17         1.2794   -1.0150   -0.3133 C.3       1 <0>        -0.1597
     19 C18        -0.1413   -1.2857   -0.8479 C.3       1 <0>         0.1078
     20 H2         -0.1974   -2.2871   -1.2748 H         1 <0>         0.0600
     21 O1         -0.4914   -0.3100   -1.8316 O.3       1 <0>        -0.5586
     22 S1          2.3087   -2.1572    3.0912 S.3       1 <0>        -0.0555
     23 C19         2.9540   -2.5161    4.6910 C.ar      1 <0>        -0.1430
     24 C20         2.2901   -3.4075    5.5244 C.ar      1 <0>        -0.0953
     25 C21         2.7967   -3.6880    6.7780 C.ar      1 <0>        -0.1216
     26 C22         3.9680   -3.0801    7.2052 C.ar      1 <0>         0.0996
     27 C23         4.6318   -2.1899    6.3739 C.ar      1 <0>        -0.1833
     28 C24         4.1301   -1.9123    5.1177 C.ar      1 <0>        -0.0633
     29 O2          4.4659   -3.3568    8.4403 O.3       1 <0>        -0.3299
     30 C25         5.6757   -2.6953    8.8152 C.3       1 <0>         0.0262
     31 C26         6.0778   -3.1288   10.2263 C.3       1 <0>        -0.0005
     32 N1          6.3379   -4.5745   10.2390 N.4       1 <0>        -0.3838
     33 C27         6.5734   -5.0157   11.6190 C.3       1 <0>        -0.0071
     34 C28         6.7645   -6.5337   11.6476 C.3       1 <0>        -0.1467
     35 C29         7.9683   -6.9076   10.7781 C.3       1 <0>        -0.1388
     36 C30         7.7448   -6.3774    9.3588 C.3       1 <0>        -0.1454
     37 C31         7.5173   -4.8653    9.4150 C.3       1 <0>        -0.0127
     38 O3         -0.1507   -9.2970    2.3237 O.3       1 <0>        -0.3188
     39 C32        -1.1842  -10.1920    1.9076 C.3       1 <0>         0.0263
     40 H3         -0.7099    0.9448    0.4895 H         1 <0>         0.0573
     41 H4         -2.1979    0.5066   -0.3835 H         1 <0>         0.0647
     42 H5         -2.1408    0.3911    1.3918 H         1 <0>         0.0495
     43 H6         -2.9679   -1.8718    1.0574 H         1 <0>         0.0682
     44 H7         -2.7740   -1.8954   -0.7062 H         1 <0>         0.0712
     45 H8         -2.7619   -4.1894    0.2551 H         1 <0>         0.0736
     46 H9         -1.2041   -3.7977   -0.5204 H         1 <0>         0.0678
     47 H10        -1.7924   -3.4667    2.4557 H         1 <0>         0.0844
     48 H11        -2.7332   -5.8421    1.0141 H         1 <0>         0.1290
     49 H12        -2.3276   -8.2474    1.3012 H         1 <0>         0.1300
     50 H13         1.5059   -7.3824    2.9688 H         1 <0>         0.1268
     51 H14         1.8466   -5.0546    3.7473 H         1 <0>         0.0807
     52 H15         2.2392   -4.7605    2.0406 H         1 <0>         0.0919
     53 H16         0.7293   -3.2317    0.7688 H         1 <0>         0.0864
     54 H17        -0.6196   -1.1293    2.5155 H         1 <0>         0.0943
     55 H18         1.0557    0.3081    1.4051 H         1 <0>         0.0807
     56 H19         1.9783   -1.1904    1.7444 H         1 <0>         0.0820
     57 H20         1.7015   -0.1367   -0.8018 H         1 <0>         0.0770
     58 H21         1.9160   -1.8824   -0.4878 H         1 <0>         0.0684
     59 H22         0.0652   -0.3312   -2.6220 H         1 <0>         0.3771
     60 H23         1.3779   -3.8806    5.1921 H         1 <0>         0.1345
     61 H24         2.2805   -4.3807    7.4262 H         1 <0>         0.1318
     62 H25         5.5436   -1.7170    6.7077 H         1 <0>         0.1282
     63 H26         4.6495   -1.2226    4.4689 H         1 <0>         0.1316
     64 H27         6.4672   -2.9606    8.1142 H         1 <0>         0.0854
     65 H28         5.5207   -1.6165    8.7968 H         1 <0>         0.1084
     66 H29         6.9791   -2.5949   10.5275 H         1 <0>         0.1483
     67 H30         5.2701   -2.8988   10.9211 H         1 <0>         0.1419
     68 H31         7.4684   -4.5299   12.0076 H         1 <0>         0.1290
     69 H32         5.7171   -4.7461   12.2373 H         1 <0>         0.1308
     70 H33         6.9410   -6.8590   12.6729 H         1 <0>         0.1129
     71 H34         5.8699   -7.0205   11.2595 H         1 <0>         0.0878
     72 H35         8.8716   -6.4625   11.1953 H         1 <0>         0.0820
     73 H36         8.0746   -7.9920   10.7495 H         1 <0>         0.0946
     74 H37         8.6219   -6.5911    8.7481 H         1 <0>         0.1121
     75 H38         6.8705   -6.8611    8.9232 H         1 <0>         0.0878
     76 H39         7.3579   -4.4845    8.4062 H         1 <0>         0.1274
     77 H40         8.3922   -4.3826    9.8506 H         1 <0>         0.1299
     78 H41        -1.3728  -10.0590    0.8424 H         1 <0>         0.0574
     79 H42        -0.8726  -11.2194    2.0960 H         1 <0>         0.1021
     80 H43        -2.0953   -9.9803    2.4672 H         1 <0>         0.0567
     81 H44         5.5382   -5.0623    9.8639 H         1 <0>         0.4296
@<TRIPOS>BOND
     1    1    2 1
     2    1   40 1
     3    1   41 1
     4    1   42 1
     5    2   16 1
     6    2   19 1
     7    2    3 1
     8    3    4 1
     9    3   43 1
    10    3   44 1
    11    4    5 1
    12    4   45 1
    13    4   46 1
    14    5   15 1
    15    5    6 1
    16    5   47 1
    17    6   11 ar
    18    6    7 ar
    19    7    8 ar
    20    7   48 1
    21    8    9 ar
    22    8   49 1
    23    9   10 ar
    24    9   38 1
    25   10   11 ar
    26   10   50 1
    27   11   12 1
    28   12   13 1
    29   12   51 1
    30   12   52 1
    31   13   14 1
    32   13   15 1
    33   13   22 1
    34   15   16 1
    35   15   53 1
    36   16   17 1
    37   16   54 1
    38   17   18 1
    39   17   55 1
    40   17   56 1
    41   18   19 1
    42   18   57 1
    43   18   58 1
    44   19   20 1
    45   19   21 1
    46   21   59 1
    47   22   23 1
    48   23   28 ar
    49   23   24 ar
    50   24   25 ar
    51   24   60 1
    52   25   26 ar
    53   25   61 1
    54   26   27 ar
    55   26   29 1
    56   27   28 ar
    57   27   62 1
    58   28   63 1
    59   29   30 1
    60   30   31 1
    61   30   64 1
    62   30   65 1
    63   31   32 1
    64   31   66 1
    65   31   67 1
    66   32   37 1
    67   32   33 1
    68   32   81 1
    69   33   34 1
    70   33   68 1
    71   33   69 1
    72   34   35 1
    73   34   70 1
    74   34   71 1
    75   35   36 1
    76   35   72 1
    77   35   73 1
    78   36   37 1
    79   36   74 1
    80   36   75 1
    81   37   76 1
    82   37   77 1
    83   38   39 1
    84   39   78 1
    85   39   79 1
    86   39   80 1
@<TRIPOS>MOLECULE
CHEMBL38171__6
   81    86     0     0     0
SMALL
USER_CHARGES

@<TRIPOS>ATOM
      1 C1         -0.7121    1.2592   -0.1795 C.3       1 <0>        -0.1301
      2 C2         -0.8331   -0.2520    0.0267 C.3       1 <0>        -0.0533
      3 C3         -2.2935   -0.6358    0.1687 C.3       1 <0>        -0.1034
      4 C4         -2.8812    0.2300    1.2951 C.3       1 <0>        -0.1141
      5 C5         -2.1158    0.0528    2.5999 C.3       1 <0>        -0.0327
      6 C6         -2.3914   -1.3045    3.1860 C.ar      1 <0>        -0.1051
      7 C7         -3.6811   -1.8096    3.0699 C.ar      1 <0>        -0.0775
      8 C8         -4.0018   -3.0449    3.5897 C.ar      1 <0>        -0.2034
      9 C9         -3.0284   -3.7930    4.2364 C.ar      1 <0>         0.1308
     10 C10        -1.7433   -3.2912    4.3508 C.ar      1 <0>        -0.1516
     11 C11        -1.4228   -2.0476    3.8241 C.ar      1 <0>        -0.0330
     12 C12        -0.0029   -1.5673    3.9736 C.3       1 <0>        -0.0619
     13 C13         0.0787   -0.0579    3.7562 C.3       1 <0>        -0.0710
     14 H1         -0.4262    0.4578    4.5731 H         1 <0>         0.0973
     15 C14        -0.6114    0.2795    2.4294 C.3       1 <0>        -0.0667
     16 C15        -0.1209   -0.6619    1.3440 C.3       1 <0>        -0.0839
     17 C16         1.3550   -0.5142    0.9569 C.3       1 <0>        -0.1032
     18 C17         1.3999   -1.1094   -0.4768 C.3       1 <0>        -0.1601
     19 C18        -0.0353   -0.9854   -1.0464 C.3       1 <0>         0.1110
     20 H2         -0.4587   -1.9743   -1.2221 H         1 <0>         0.0568
     21 O1         -0.0233   -0.2284   -2.2584 O.3       1 <0>        -0.5609
     22 S1          1.8173    0.4559    3.6930 S.3       1 <0>        -0.0875
     23 C19         1.7428    2.2162    3.7192 C.ar      1 <0>        -0.0998
     24 C20         0.5259    2.8576    3.9131 C.ar      1 <0>        -0.0951
     25 C21         0.4687    4.2372    3.9335 C.ar      1 <0>        -0.1181
     26 C22         1.6257    4.9824    3.7605 C.ar      1 <0>         0.1038
     27 C23         2.8414    4.3430    3.5668 C.ar      1 <0>        -0.1802
     28 C24         2.9018    2.9635    3.5518 C.ar      1 <0>        -0.0614
     29 O2          1.5682    6.3411    3.7803 O.3       1 <0>        -0.3282
     30 C25         2.7978    7.0453    3.5957 C.3       1 <0>         0.0256
     31 C26         2.5357    8.5518    3.6483 C.3       1 <0>        -0.0009
     32 N1          2.0454    8.9171    4.9840 N.4       1 <0>        -0.3840
     33 C27         1.6478   10.3301    4.9881 C.3       1 <0>        -0.0070
     34 C28         1.0609   10.6948    6.3534 C.3       1 <0>        -0.1467
     35 C29         2.1167   10.4567    7.4369 C.3       1 <0>        -0.1390
     36 C30         2.5780    8.9978    7.3745 C.3       1 <0>        -0.1453
     37 C31         3.1088    8.6960    5.9713 C.3       1 <0>        -0.0131
     38 O3         -3.3350   -5.0112    4.7548 O.3       1 <0>        -0.3168
     39 C32        -4.6818   -5.4625    4.5984 C.3       1 <0>         0.0267
     40 H3          0.3409    1.5347   -0.2383 H         1 <0>         0.0536
     41 H4         -1.2137    1.5408   -1.1053 H         1 <0>         0.0602
     42 H5         -1.1773    1.7786    0.6583 H         1 <0>         0.0536
     43 H6         -2.8216   -0.4398   -0.7645 H         1 <0>         0.0673
     44 H7         -2.3768   -1.6909    0.4292 H         1 <0>         0.0658
     45 H8         -2.8383    1.2777    0.9974 H         1 <0>         0.0704
     46 H9         -3.9225   -0.0509    1.4529 H         1 <0>         0.0700
     47 H10        -2.4879    0.7917    3.3095 H         1 <0>         0.0730
     48 H11        -4.4398   -1.2278    2.5675 H         1 <0>         0.1278
     49 H12        -5.0067   -3.4290    3.4944 H         1 <0>         0.1291
     50 H13        -0.9843   -3.8717    4.8541 H         1 <0>         0.1306
     51 H14         0.3537   -1.8060    4.9756 H         1 <0>         0.0882
     52 H15         0.6261   -2.0708    3.2394 H         1 <0>         0.0933
     53 H16        -0.4166    1.3172    2.1586 H         1 <0>         0.0924
     54 H17        -0.3570   -1.6948    1.5999 H         1 <0>         0.0863
     55 H18         1.6482    0.5356    0.9481 H         1 <0>         0.0725
     56 H19         1.9900   -1.0873    1.6325 H         1 <0>         0.0707
     57 H20         2.0978   -0.5444   -1.0948 H         1 <0>         0.0718
     58 H21         1.6976   -2.1572   -0.4378 H         1 <0>         0.0666
     59 H22         0.4699   -0.6458   -2.9779 H         1 <0>         0.3764
     60 H23        -0.3751    2.2775    4.0475 H         1 <0>         0.1358
     61 H24        -0.4773    4.7360    4.0838 H         1 <0>         0.1346
     62 H25         3.7416    4.9243    3.4319 H         1 <0>         0.1310
     63 H26         3.8491    2.4659    3.4054 H         1 <0>         0.1354
     64 H27         3.4962    6.7702    4.3860 H         1 <0>         0.0860
     65 H28         3.2241    6.7843    2.6271 H         1 <0>         0.1093
     66 H29         3.4613    9.0891    3.4415 H         1 <0>         0.1488
     67 H30         1.7872    8.8166    2.9015 H         1 <0>         0.1425
     68 H31         2.5201   10.9530    4.7900 H         1 <0>         0.1291
     69 H32         0.8988   10.4985    4.2144 H         1 <0>         0.1309
     70 H33         0.7680   11.7447    6.3550 H         1 <0>         0.1129
     71 H34         0.1884   10.0725    6.5524 H         1 <0>         0.0878
     72 H35         2.9681   11.1159    7.2672 H         1 <0>         0.0821
     73 H36         1.6856   10.6611    8.4169 H         1 <0>         0.0945
     74 H37         3.3696    8.8348    8.1059 H         1 <0>         0.1122
     75 H38         1.7370    8.3404    7.5947 H         1 <0>         0.0878
     76 H39         3.4383    7.6581    5.9235 H         1 <0>         0.1275
     77 H40         3.9499    9.3538    5.7522 H         1 <0>         0.1302
     78 H41        -4.9226   -5.5268    3.5373 H         1 <0>         0.0566
     79 H42        -4.7910   -6.4458    5.0560 H         1 <0>         0.1028
     80 H43        -5.3593   -4.7592    5.0827 H         1 <0>         0.0562
     81 H44         1.2477    8.3447    5.2165 H         1 <0>         0.4294
@<TRIPOS>BOND
     1    1    2 1
     2    1   40 1
     3    1   41 1
     4    1   42 1
     5    2   16 1
     6    2   19 1
     7    2    3 1
     8    3    4 1
     9    3   43 1
    10    3   44 1
    11    4    5 1
    12    4   45 1
    13    4   46 1
    14    5   15 1
    15    5    6 1
    16    5   47 1
    17    6   11 ar
    18    6    7 ar
    19    7    8 ar
    20    7   48 1
    21    8    9 ar
    22    8   49 1
    23    9   10 ar
    24    9   38 1
    25   10   11 ar
    26   10   50 1
    27   11   12 1
    28   12   13 1
    29   12   51 1
    30   12   52 1
    31   13   14 1
    32   13   15 1
    33   13   22 1
    34   15   16 1
    35   15   53 1
    36   16   17 1
    37   16   54 1
    38   17   18 1
    39   17   55 1
    40   17   56 1
    41   18   19 1
    42   18   57 1
    43   18   58 1
    44   19   20 1
    45   19   21 1
    46   21   59 1
    47   22   23 1
    48   23   28 ar
    49   23   24 ar
    50   24   25 ar
    51   24   60 1
    52   25   26 ar
    53   25   61 1
    54   26   27 ar
    55   26   29 1
    56   27   28 ar
    57   27   62 1
    58   28   63 1
    59   29   30 1
    60   30   31 1
    61   30   64 1
    62   30   65 1
    63   31   32 1
    64   31   66 1
    65   31   67 1
    66   32   37 1
    67   32   33 1
    68   32   81 1
    69   33   34 1
    70   33   68 1
    71   33   69 1
    72   34   35 1
    73   34   70 1
    74   34   71 1
    75   35   36 1
    76   35   72 1
    77   35   73 1
    78   36   37 1
    79   36   74 1
    80   36   75 1
    81   37   76 1
    82   37   77 1
    83   38   39 1
    84   39   78 1
    85   39   79 1
    86   39   80 1
@<TRIPOS>MOLECULE
CHEMBL38171__7
   81    86     0     0     0
SMALL
USER_CHARGES

@<TRIPOS>ATOM
      1 C1         -1.0910    0.5792    0.2492 C.3       1 <0>        -0.1260
      2 C2         -0.5959   -0.8661    0.1502 C.3       1 <0>        -0.0408
      3 C3         -1.7456   -1.8579   -0.0376 C.3       1 <0>        -0.1094
      4 C4         -2.5836   -1.9742    1.2288 C.3       1 <0>        -0.1102
      5 C5         -1.7280   -2.4627    2.3887 C.3       1 <0>        -0.0298
      6 C6         -1.2976   -3.8892    2.2163 C.ar      1 <0>        -0.0973
      7 C7         -2.1174   -4.7597    1.5135 C.ar      1 <0>        -0.0747
      8 C8         -1.7631   -6.0828    1.3478 C.ar      1 <0>        -0.2055
      9 C9         -0.5780   -6.5501    1.8967 C.ar      1 <0>         0.1299
     10 C10         0.2425   -5.6811    2.5935 C.ar      1 <0>        -0.1576
     11 C11        -0.1084   -4.3450    2.7465 C.ar      1 <0>        -0.0274
     12 C12         0.8517   -3.4585    3.4868 C.3       1 <0>        -0.0824
     13 C13         0.3099   -2.0665    3.7609 C.3       1 <0>        -0.0609
     14 H1         -0.3159   -2.1066    4.6678 H         1 <0>         0.0957
     15 C14        -0.5398   -1.5412    2.6056 C.3       1 <0>        -0.0451
     16 C15         0.2630   -1.2629    1.3661 C.3       1 <0>        -0.0668
     17 C16         1.0982   -2.4438    0.8512 C.3       1 <0>        -0.1203
     18 C17         1.4727   -2.0150   -0.5898 C.3       1 <0>        -0.1610
     19 C18         0.3609   -1.0591   -1.0558 C.3       1 <0>         0.1038
     20 H2         -0.1809   -1.4967   -1.8957 H         1 <0>         0.0561
     21 O1          0.9225    0.1974   -1.4421 O.3       1 <0>        -0.5614
     22 S1          1.6899   -0.9263    4.0784 S.3       1 <0>        -0.0871
     23 C19         2.3269   -1.4512    5.6351 C.ar      1 <0>        -0.1051
     24 C20         1.6664   -2.4347    6.3606 C.ar      1 <0>        -0.0967
     25 C21         2.1666   -2.8453    7.5805 C.ar      1 <0>        -0.1188
     26 C22         3.3280   -2.2761    8.0816 C.ar      1 <0>         0.1042
     27 C23         3.9884   -1.2940    7.3580 C.ar      1 <0>        -0.1806
     28 C24         3.4932   -0.8859    6.1353 C.ar      1 <0>        -0.0602
     29 O2          3.8195   -2.6809    9.2834 O.3       1 <0>        -0.3288
     30 C25         5.0193   -2.0522    9.7387 C.3       1 <0>         0.0255
     31 C26         5.4154   -2.6331   11.0976 C.3       1 <0>        -0.0005
     32 N1          5.6881   -4.0695   10.9554 N.4       1 <0>        -0.3839
     33 C27         5.9191   -4.6557   12.2811 C.3       1 <0>        -0.0071
     34 C28         6.1234   -6.1662   12.1465 C.3       1 <0>        -0.1467
     35 C29         7.3358   -6.4339   11.2500 C.3       1 <0>        -0.1389
     36 C30         7.1161   -5.7550    9.8950 C.3       1 <0>        -0.1454
     37 C31         6.8750   -4.2597   10.1130 C.3       1 <0>        -0.0129
     38 O3         -0.2256   -7.8547    1.7515 O.3       1 <0>        -0.3190
     39 C32        -1.1237   -8.6918    1.0202 C.3       1 <0>         0.0267
     40 H3         -0.2361    1.2536    0.2981 H         1 <0>         0.0660
     41 H4         -1.6924    0.8181   -0.6279 H         1 <0>         0.0556
     42 H5         -1.6970    0.6949    1.1478 H         1 <0>         0.0514
     43 H6         -2.3820   -1.5144   -0.8574 H         1 <0>         0.0644
     44 H7         -1.3411   -2.8371   -0.2970 H         1 <0>         0.0673
     45 H8         -3.0113   -0.9998    1.4795 H         1 <0>         0.0709
     46 H9         -3.4093   -2.6680    1.0585 H         1 <0>         0.0713
     47 H10        -2.3491   -2.4162    3.2974 H         1 <0>         0.0778
     48 H11        -3.0463   -4.4100    1.0887 H         1 <0>         0.1283
     49 H12        -2.4046   -6.7495    0.7910 H         1 <0>         0.1290
     50 H13         1.1646   -6.0427    3.0244 H         1 <0>         0.1257
     51 H14         1.0776   -3.9366    4.4532 H         1 <0>         0.0736
     52 H15         1.7918   -3.3955    2.9402 H         1 <0>         0.0986
     53 H16        -0.9586   -0.5649    2.9384 H         1 <0>         0.0807
     54 H17         0.9448   -0.4273    1.5747 H         1 <0>         0.0763
     55 H18         2.0074   -2.5648    1.4416 H         1 <0>         0.0689
     56 H19         0.5192   -3.3634    0.8274 H         1 <0>         0.0806
     57 H20         2.4333   -1.5012   -0.5855 H         1 <0>         0.0727
     58 H21         1.5158   -2.8889   -1.2382 H         1 <0>         0.0654
     59 H22         1.5303    0.1427   -2.1922 H         1 <0>         0.3756
     60 H23         0.7619   -2.8778    5.9709 H         1 <0>         0.1374
     61 H24         1.6530   -3.6096    8.1449 H         1 <0>         0.1350
     62 H25         4.8925   -0.8512    7.7493 H         1 <0>         0.1316
     63 H26         4.0100   -0.1244    5.5700 H         1 <0>         0.1361
     64 H27         5.8188   -2.2316    9.0198 H         1 <0>         0.0864
     65 H28         4.8528   -0.9795    9.8366 H         1 <0>         0.1093
     66 H29         6.3099   -2.1278   11.4619 H         1 <0>         0.1488
     67 H30         4.6009   -2.4863   11.8068 H         1 <0>         0.1421
     68 H31         6.8075   -4.2076   12.7263 H         1 <0>         0.1291
     69 H32         5.0568   -4.4616   12.9190 H         1 <0>         0.1309
     70 H33         6.2966   -6.5993   13.1317 H         1 <0>         0.1129
     71 H34         5.2355   -6.6154   11.7017 H         1 <0>         0.0878
     72 H35         8.2326   -6.0294   11.7192 H         1 <0>         0.0821
     73 H36         7.4517   -7.5080   11.1049 H         1 <0>         0.0946
     74 H37         7.9988   -5.8941    9.2708 H         1 <0>         0.1122
     75 H38         6.2487   -6.1956    9.4034 H         1 <0>         0.0878
     76 H39         6.7184   -3.7732    9.1503 H         1 <0>         0.1274
     77 H40         7.7429   -3.8200   10.6044 H         1 <0>         0.1301
     78 H41        -1.2380   -8.3048    0.0077 H         1 <0>         0.0568
     79 H42        -0.7239   -9.7050    0.9790 H         1 <0>         0.1017
     80 H43        -2.0942   -8.7040    1.5163 H         1 <0>         0.0565
     81 H44         4.8951   -4.5203   10.5241 H         1 <0>         0.4296
@<TRIPOS>BOND
     1    1    2 1
     2    1   40 1
     3    1   41 1
     4    1   42 1
     5    2   16 1
     6    2   19 1
     7    2    3 1
     8    3    4 1
     9    3   43 1
    10    3   44 1
    11    4    5 1
    12    4   45 1
    13    4   46 1
    14    5   15 1
    15    5    6 1
    16    5   47 1
    17    6   11 ar
    18    6    7 ar
    19    7    8 ar
    20    7   48 1
    21    8    9 ar
    22    8   49 1
    23    9   10 ar
    24    9   38 1
    25   10   11 ar
    26   10   50 1
    27   11   12 1
    28   12   13 1
    29   12   51 1
    30   12   52 1
    31   13   14 1
    32   13   15 1
    33   13   22 1
    34   15   16 1
    35   15   53 1
    36   16   17 1
    37   16   54 1
    38   17   18 1
    39   17   55 1
    40   17   56 1
    41   18   19 1
    42   18   57 1
    43   18   58 1
    44   19   20 1
    45   19   21 1
    46   21   59 1
    47   22   23 1
    48   23   28 ar
    49   23   24 ar
    50   24   25 ar
    51   24   60 1
    52   25   26 ar
    53   25   61 1
    54   26   27 ar
    55   26   29 1
    56   27   28 ar
    57   27   62 1
    58   28   63 1
    59   29   30 1
    60   30   31 1
    61   30   64 1
    62   30   65 1
    63   31   32 1
    64   31   66 1
    65   31   67 1
    66   32   37 1
    67   32   33 1
    68   32   81 1
    69   33   34 1
    70   33   68 1
    71   33   69 1
    72   34   35 1
    73   34   70 1
    74   34   71 1
    75   35   36 1
    76   35   72 1
    77   35   73 1
    78   36   37 1
    79   36   74 1
    80   36   75 1
    81   37   76 1
    82   37   77 1
    83   38   39 1
    84   39   78 1
    85   39   79 1
    86   39   80 1
@<TRIPOS>MOLECULE
CHEMBL44
   30    32     0     0     0
SMALL
USER_CHARGES

@<TRIPOS>ATOM
      1 C1         -0.0168    1.3897    0.0097 C.ar      1 <0>        -0.0898
      2 C2          1.1691    2.0941    0.0021 C.ar      1 <0>        -0.1444
      3 C3          2.3804    1.4165   -0.0135 C.ar      1 <0>         0.1118
      4 C4          2.4026    0.0286   -0.0217 C.ar      1 <0>        -0.1437
      5 C5          1.2201   -0.6816   -0.0137 C.ar      1 <0>        -0.0707
      6 C6          0.0021   -0.0041    0.0020 C.ar      1 <0>        -0.0391
      7 C7         -1.2713   -0.7647    0.0106 C.2       1 <0>        -0.2383
      8 C8         -2.1308   -0.6985   -1.0391 C.2       1 <0>         0.1275
      9 O1         -3.2790   -1.3788   -1.0759 O.3       1 <0>        -0.2144
     10 C9         -3.8133   -1.9283    0.0323 C.ar      1 <0>         0.1753
     11 C10        -5.1371   -2.3448    0.0457 C.ar      1 <0>        -0.1819
     12 C11        -5.6741   -2.9171    1.1876 C.ar      1 <0>         0.1915
     13 C12        -4.9001   -3.0841    2.3313 C.ar      1 <0>        -0.2030
     14 C13        -3.5799   -2.6737    2.3405 C.ar      1 <0>         0.2179
     15 C14        -3.0336   -2.0875    1.1922 C.ar      1 <0>        -0.2616
     16 C15        -1.6367   -1.6192    1.1574 C.2       1 <0>         0.4330
     17 O2         -0.8325   -1.9156    2.0245 O.2       1 <0>        -0.4372
     18 O3         -2.8202   -2.8370    3.4529 O.3       1 <0>        -0.4757
     19 O4         -6.9707   -3.3190    1.1905 O.3       1 <0>        -0.4879
     20 O5          3.5472    2.1134   -0.0214 O.3       1 <0>        -0.4999
     21 H1         -0.9590    1.9174    0.0260 H         1 <0>         0.1287
     22 H2          1.1551    3.1740    0.0081 H         1 <0>         0.1326
     23 H3          3.3466   -0.4958   -0.0346 H         1 <0>         0.1325
     24 H4          1.2380   -1.7614   -0.0204 H         1 <0>         0.1278
     25 H5         -1.8749   -0.0692   -1.8787 H         1 <0>         0.2021
     26 H6         -5.7497   -2.2223   -0.8352 H         1 <0>         0.1539
     27 H7         -5.3310   -3.5346    3.2132 H         1 <0>         0.1504
     28 H8         -2.3502   -3.6814    3.4877 H         1 <0>         0.4050
     29 H9         -7.0993   -4.2345    0.9070 H         1 <0>         0.4041
     30 H10         3.8936    2.3103    0.8597 H         1 <0>         0.3934
@<TRIPOS>BOND
     1    1    6 ar
     2    1    2 ar
     3    1   21 1
     4    2    3 ar
     5    2   22 1
     6    3    4 ar
     7    3   20 1
     8    4    5 ar
     9    4   23 1
    10    5    6 ar
    11    5   24 1
    12    6    7 1
    13    7   16 1
    14    7    8 2
    15    8    9 1
    16    8   25 1
    17    9   10 1
    18   10   15 ar
    19   10   11 ar
    20   11   12 ar
    21   11   26 1
    22   12   13 ar
    23   12   19 1
    24   13   14 ar
    25   13   27 1
    26   14   15 ar
    27   14   18 1
    28   15   16 1
    29   16   17 2
    30   18   28 1
    31   19   29 1
    32   20   30 1
@<TRIPOS>MOLECULE
CHEMBL183333
   61    65     0     0     0
SMALL
USER_CHARGES

@<TRIPOS>ATOM
      1 C1         -0.0231    1.6336   -1.6547 C.ar      1 <0>        -0.1130
      2 C2         -0.1154    0.5317   -0.8251 C.ar      1 <0>        -0.1229
      3 C3          1.0313   -0.1198   -0.4112 C.ar      1 <0>        -0.0934
      4 C4          2.2704    0.3303   -0.8271 C.ar      1 <0>        -0.0694
      5 C5          2.3626    1.4316   -1.6574 C.ar      1 <0>        -0.1013
      6 C6          1.2160    2.0840   -2.0703 C.ar      1 <0>        -0.1174
      7 C7          3.5206   -0.3794   -0.3751 C.3       1 <0>        -0.0046
      8 H1          4.3830    0.2754   -0.5000 H         1 <0>         0.1060
      9 C8          3.7154   -1.6505   -1.1883 C.3       1 <0>         0.0046
     10 H2          3.9251   -1.3741   -2.2216 H         1 <0>         0.1005
     11 C9          4.8319   -2.5226   -0.6887 C.ar      1 <0>        -0.0804
     12 C10         5.3408   -3.4103   -1.6447 C.ar      1 <0>        -0.0930
     13 C11         6.3522   -4.2898   -1.3454 C.ar      1 <0>        -0.1394
     14 C12         6.8858   -4.3058   -0.0643 C.ar      1 <0>         0.1174
     15 C13         6.3922   -3.4277    0.8799 C.ar      1 <0>        -0.1415
     16 C14         5.3718   -2.5275    0.5701 C.ar      1 <0>        -0.0596
     17 C15         4.9807   -1.6064    1.6999 C.3       1 <0>        -0.0588
     18 S1          3.3592   -0.8618    1.3738 S.3       1 <0>        -0.2219
     19 O1          7.8805   -5.1743    0.2566 O.3       1 <0>        -0.4969
     20 C16         2.4353   -2.4449   -1.1540 C.ar      1 <0>        -0.0917
     21 C17         2.0845   -3.1395   -0.0110 C.ar      1 <0>        -0.0509
     22 C18         0.9118   -3.8689    0.0228 C.ar      1 <0>        -0.1459
     23 C19         0.0856   -3.9037   -1.0911 C.ar      1 <0>         0.1141
     24 C20         0.4396   -3.2056   -2.2365 C.ar      1 <0>        -0.2034
     25 C21         1.6108   -2.4735   -2.2635 C.ar      1 <0>        -0.0622
     26 O2         -1.0684   -4.6209   -1.0605 O.3       1 <0>        -0.3290
     27 C22        -1.8697   -4.6114   -2.2436 C.3       1 <0>         0.0279
     28 C23        -3.1182   -5.4672   -2.0208 C.3       1 <0>         0.0036
     29 N1         -3.9539   -4.8528   -0.9805 N.4       1 <0>        -0.3954
     30 C24        -4.5368   -3.5801   -1.4772 C.3       1 <0>        -0.0102
     31 C25        -5.7670   -3.3714   -0.5587 C.3       1 <0>        -0.1446
     32 C26        -6.3024   -4.8089   -0.3661 C.3       1 <0>        -0.1450
     33 C27        -5.1042   -5.7281   -0.6674 C.3       1 <0>        -0.0088
     34 H3         -0.9193    2.1399   -1.9817 H         1 <0>         0.1216
     35 H4         -1.0835    0.1800   -0.5001 H         1 <0>         0.1156
     36 H5          0.9593   -0.9803    0.2375 H         1 <0>         0.1285
     37 H6          3.3307    1.7835   -1.9822 H         1 <0>         0.1246
     38 H7          1.2880    2.9447   -2.7186 H         1 <0>         0.1260
     39 H8          4.9273   -3.4034   -2.6424 H         1 <0>         0.1259
     40 H9          6.7290   -4.9637   -2.1006 H         1 <0>         0.1332
     41 H10         6.8038   -3.4379    1.8783 H         1 <0>         0.1323
     42 H11         4.9372   -2.1738    2.6296 H         1 <0>         0.1214
     43 H12         5.7262   -0.8170    1.7964 H         1 <0>         0.1048
     44 H13         8.7702   -4.8264    0.1063 H         1 <0>         0.3962
     45 H14         2.7280   -3.1120    0.8559 H         1 <0>         0.1461
     46 H15         0.6386   -4.4118    0.9155 H         1 <0>         0.1304
     47 H16        -0.2019   -3.2312   -3.1050 H         1 <0>         0.1240
     48 H17         1.8846   -1.9262   -3.1534 H         1 <0>         0.1253
     49 H18        -2.1669   -3.5880   -2.4730 H         1 <0>         0.0843
     50 H19        -1.2944   -5.0177   -3.0754 H         1 <0>         0.1068
     51 H20        -3.6844   -5.5327   -2.9499 H         1 <0>         0.1476
     52 H21        -2.8215   -6.4673   -1.7049 H         1 <0>         0.1409
     53 H22        -3.8271   -2.7609   -1.3616 H         1 <0>         0.1333
     54 H23        -4.8459   -3.6788   -2.5178 H         1 <0>         0.1345
     55 H24        -5.4667   -2.9404    0.3963 H         1 <0>         0.0984
     56 H25        -6.5122   -2.7447   -1.0486 H         1 <0>         0.1171
     57 H26        -6.6405   -4.9522    0.6602 H         1 <0>         0.1056
     58 H27        -7.1158   -5.0064   -1.0643 H         1 <0>         0.1042
     59 H28        -5.3303   -6.3644   -1.5230 H         1 <0>         0.1312
     60 H29        -4.8778   -6.3410    0.2051 H         1 <0>         0.1329
     61 H30        -3.4076   -4.6852   -0.1489 H         1 <0>         0.4338
@<TRIPOS>BOND
     1    1    6 ar
     2    1    2 ar
     3    1   34 1
     4    2    3 ar
     5    2   35 1
     6    3    4 ar
     7    3   36 1
     8    4    5 ar
     9    4    7 1
    10    5    6 ar
    11    5   37 1
    12    6   38 1
    13    7    8 1
    14    7   18 1
    15    7    9 1
    16    9   10 1
    17    9   11 1
    18    9   20 1
    19   11   16 ar
    20   11   12 ar
    21   12   13 ar
    22   12   39 1
    23   13   14 ar
    24   13   40 1
    25   14   15 ar
    26   14   19 1
    27   15   16 ar
    28   15   41 1
    29   16   17 1
    30   17   18 1
    31   17   42 1
    32   17   43 1
    33   19   44 1
    34   20   25 ar
    35   20   21 ar
    36   21   22 ar
    37   21   45 1
    38   22   23 ar
    39   22   46 1
    40   23   24 ar
    41   23   26 1
    42   24   25 ar
    43   24   47 1
    44   25   48 1
    45   26   27 1
    46   27   28 1
    47   27   49 1
    48   27   50 1
    49   28   29 1
    50   28   51 1
    51   28   52 1
    52   29   33 1
    53   29   30 1
    54   29   61 1
    55   30   31 1
    56   30   53 1
    57   30   54 1
    58   31   32 1
    59   31   55 1
    60   31   56 1
    61   32   33 1
    62   32   57 1
    63   32   58 1
    64   33   59 1
    65   33   60 1
@<TRIPOS>MOLECULE
CHEMBL122237
   66    70     0     0     0
SMALL
USER_CHARGES

@<TRIPOS>ATOM
      1 C1          0.9014    1.3024   -0.7284 C.ar      1 <0>        -0.0951
      2 C2          1.9142    2.0902   -0.2141 C.ar      1 <0>        -0.1010
      3 C3          3.1112    1.5142    0.1686 C.ar      1 <0>        -0.0674
      4 C4          3.2951    0.1504    0.0374 C.ar      1 <0>        -0.0777
      5 C5          2.2819   -0.6374   -0.4760 C.ar      1 <0>        -0.0998
      6 C6          1.0855   -0.0613   -0.8600 C.ar      1 <0>        -0.0953
      7 C7         -0.0189   -0.9201   -1.4202 C.3       1 <0>         0.1092
      8 O1          0.1182   -1.0060   -2.8400 O.3       1 <0>        -0.3929
      9 C8         -0.8851   -1.8023   -3.4737 C.3       1 <0>         0.0269
     10 C9         -0.6408   -1.8236   -4.9839 C.3       1 <0>        -0.0018
     11 N1          0.6318   -2.5016   -5.2646 N.4       1 <0>        -0.3827
     12 C10         0.9328   -2.4002   -6.6976 C.3       1 <0>        -0.0067
     13 C11         2.2961   -3.0341   -6.9824 C.3       1 <0>        -0.1468
     14 C12         2.2639   -4.5083   -6.5690 C.3       1 <0>        -0.1387
     15 C13         1.8762   -4.6054   -5.0907 C.3       1 <0>        -0.1455
     16 C14         0.5284   -3.9133   -4.8760 C.3       1 <0>        -0.0120
     17 C15         4.2157    2.3731    0.7283 C.3       1 <0>         0.1455
     18 H1          4.0530    3.4111    0.4380 H         1 <0>         0.0970
     19 C16         4.2253    2.2636    2.2622 C.3       1 <0>        -0.0651
     20 H2          3.2395    2.5068    2.6586 H         1 <0>         0.1400
     21 S1          5.4531    3.4608    2.8731 S.3       1 <0>        -0.0801
     22 C17         6.8039    3.2304    1.7582 C.ar      1 <0>        -0.1485
     23 C18         8.0410    3.7756    2.0759 C.ar      1 <0>        -0.0893
     24 C19         9.1139    3.6159    1.2141 C.ar      1 <0>         0.0982
     25 C20         8.9446    2.9110    0.0314 C.ar      1 <0>        -0.1074
     26 C21         7.7167    2.3664   -0.2831 C.ar      1 <0>        -0.1152
     27 C22         6.6324    2.5148    0.5786 C.ar      1 <0>         0.1211
     28 O2          5.4652    1.9289    0.2222 O.3       1 <0>        -0.3049
     29 O3         10.3260    4.1475    1.5256 O.3       1 <0>        -0.4918
     30 C23         4.6154    0.8679    2.6756 C.ar      1 <0>        -0.0884
     31 C24         5.9350    0.4649    2.5855 C.ar      1 <0>        -0.0882
     32 C25         6.2951   -0.8141    2.9634 C.ar      1 <0>        -0.1410
     33 C26         5.3316   -1.6943    3.4341 C.ar      1 <0>         0.1146
     34 C27         4.0083   -1.2873    3.5240 C.ar      1 <0>        -0.1449
     35 C28         3.6542   -0.0056    3.1497 C.ar      1 <0>        -0.0813
     36 O4          5.6832   -2.9532    3.8061 O.3       1 <0>        -0.5006
     37 H3         -0.0354    1.7518   -1.0232 H         1 <0>         0.1288
     38 H4          1.7705    3.1556   -0.1117 H         1 <0>         0.1318
     39 H5          4.2305   -0.2995    0.3358 H         1 <0>         0.1308
     40 H6          2.4259   -1.7028   -0.5791 H         1 <0>         0.1233
     41 H7          0.0429   -1.9189   -0.9881 H         1 <0>         0.0674
     42 H8         -0.9840   -0.4770   -1.1745 H         1 <0>         0.0711
     43 H9         -0.8413   -2.8194   -3.0842 H         1 <0>         0.0749
     44 H10        -1.8681   -1.3775   -3.2705 H         1 <0>         0.0984
     45 H11        -1.4535   -2.3580   -5.4759 H         1 <0>         0.1426
     46 H12        -0.5983   -0.8012   -5.3595 H         1 <0>         0.1392
     47 H13         0.1640   -2.9217   -7.2677 H         1 <0>         0.1280
     48 H14         0.9522   -1.3506   -6.9910 H         1 <0>         0.1300
     49 H15         2.5170   -2.9594   -8.0472 H         1 <0>         0.1123
     50 H16         3.0658   -2.5131   -6.4130 H         1 <0>         0.0877
     51 H17         1.5299   -5.0405   -7.1741 H         1 <0>         0.0817
     52 H18         3.2493   -4.9500   -6.7172 H         1 <0>         0.0942
     53 H19         1.7968   -5.6538   -4.8033 H         1 <0>         0.1115
     54 H20         2.6371   -4.1170   -4.4820 H         1 <0>         0.0876
     55 H21         0.2492   -3.9808   -3.8246 H         1 <0>         0.1276
     56 H22        -0.2318   -4.4026   -5.4850 H         1 <0>         0.1286
     57 H23         8.1670    4.3251    2.9971 H         1 <0>         0.1408
     58 H24         9.7772    2.7878   -0.6455 H         1 <0>         0.1421
     59 H25         7.5949    1.8197   -1.2065 H         1 <0>         0.1396
     60 H26        10.8982    3.5533    2.0302 H         1 <0>         0.3946
     61 H27         6.6847    1.1505    2.2190 H         1 <0>         0.1312
     62 H28         7.3258   -1.1287    2.8922 H         1 <0>         0.1299
     63 H29         3.2564   -1.9707    3.8900 H         1 <0>         0.1306
     64 H30         2.6249    0.3132    3.2236 H         1 <0>         0.1256
     65 H31         5.9285   -3.0339    4.7380 H         1 <0>         0.3954
     66 H32         1.3700   -2.0615   -4.7360 H         1 <0>         0.4299
@<TRIPOS>BOND
     1    1    6 ar
     2    1    2 ar
     3    1   37 1
     4    2    3 ar
     5    2   38 1
     6    3    4 ar
     7    3   17 1
     8    4    5 ar
     9    4   39 1
    10    5    6 ar
    11    5   40 1
    12    6    7 1
    13    7    8 1
    14    7   41 1
    15    7   42 1
    16    8    9 1
    17    9   10 1
    18    9   43 1
    19    9   44 1
    20   10   11 1
    21   10   45 1
    22   10   46 1
    23   11   16 1
    24   11   12 1
    25   11   66 1
    26   12   13 1
    27   12   47 1
    28   12   48 1
    29   13   14 1
    30   13   49 1
    31   13   50 1
    32   14   15 1
    33   14   51 1
    34   14   52 1
    35   15   16 1
    36   15   53 1
    37   15   54 1
    38   16   55 1
    39   16   56 1
    40   17   18 1
    41   17   28 1
    42   17   19 1
    43   19   20 1
    44   19   21 1
    45   19   30 1
    46   21   22 1
    47   22   27 ar
    48   22   23 ar
    49   23   24 ar
    50   23   57 1
    51   24   25 ar
    52   24   29 1
    53   25   26 ar
    54   25   58 1
    55   26   27 ar
    56   26   59 1
    57   27   28 1
    58   29   60 1
    59   30   35 ar
    60   30   31 ar
    61   31   32 ar
    62   31   61 1
    63   32   33 ar
    64   32   62 1
    65   33   34 ar
    66   33   36 1
    67   34   35 ar
    68   34   63 1
    69   35   64 1
    70   36   65 1
@<TRIPOS>MOLECULE
CHEMBL121978
   58    62     0     0     0
SMALL
USER_CHARGES

@<TRIPOS>ATOM
      1 C1         -0.2552    2.2109    3.4802 C.3       1 <0>        -0.0472
      2 N1         -0.1824    0.8296    2.9856 N.4       1 <0>        -0.3839
      3 C2         -1.5412    0.3174    2.7677 C.3       1 <0>        -0.0234
      4 C3         -1.4652   -1.0803    2.1444 C.3       1 <0>         0.0981
      5 N2         -0.6268   -1.9296    3.0046 N.pl3     1 <0>        -0.6440
      6 C4          0.6925   -1.4191    3.4083 C.3       1 <0>         0.0988
      7 C5          0.5147   -0.0055    3.9719 C.3       1 <0>        -0.0230
      8 C6         -1.0710   -3.1848    3.4265 C.ar      1 <0>         0.2084
      9 C7         -2.3618   -3.6028    3.1285 C.ar      1 <0>        -0.1870
     10 C8         -2.7977   -4.8447    3.5468 C.ar      1 <0>        -0.0509
     11 C9         -1.9509   -5.6716    4.2619 C.ar      1 <0>        -0.1193
     12 C10        -0.6653   -5.2587    4.5602 C.ar      1 <0>        -0.0271
     13 C11        -0.2212   -4.0204    4.1401 C.ar      1 <0>        -0.1871
     14 C12        -2.4304   -7.0257    4.7175 C.3       1 <0>         0.1517
     15 H1         -3.5202   -7.0447    4.7199 H         1 <0>         0.0940
     16 C13        -1.8993   -8.1076    3.7622 C.3       1 <0>        -0.0646
     17 H2         -2.1789   -7.8677    2.7363 H         1 <0>         0.1387
     18 S1         -2.6650   -9.6815    4.2629 S.3       1 <0>        -0.0831
     19 C14        -2.5379   -9.6288    6.0241 C.ar      1 <0>        -0.1483
     20 C15        -2.7660  -10.7894    6.7517 C.ar      1 <0>        -0.0895
     21 C16        -2.6806  -10.7721    8.1343 C.ar      1 <0>         0.0980
     22 C17        -2.3688   -9.5887    8.7875 C.ar      1 <0>        -0.1073
     23 C18        -2.1388   -8.4362    8.0649 C.ar      1 <0>        -0.1155
     24 C19        -2.2154   -8.4428    6.6742 C.ar      1 <0>         0.1213
     25 O1         -1.9483   -7.2841    6.0272 O.3       1 <0>        -0.3057
     26 O2         -2.9017  -11.9087    8.8472 O.3       1 <0>        -0.4920
     27 C20        -0.3997   -8.2037    3.8770 C.ar      1 <0>        -0.0865
     28 C21         0.4039   -7.6693    2.8869 C.ar      1 <0>        -0.0817
     29 C22         1.7788   -7.7566    2.9896 C.ar      1 <0>        -0.1455
     30 C23         2.3530   -8.3806    4.0876 C.ar      1 <0>         0.1136
     31 C24         1.5444   -8.9156    5.0799 C.ar      1 <0>        -0.1402
     32 C25         0.1702   -8.8212    4.9751 C.ar      1 <0>        -0.0884
     33 O3          3.7052   -8.4681    4.1907 O.3       1 <0>        -0.4970
     34 H3          0.7531    2.5951    3.6348 H         1 <0>         0.1255
     35 H4         -0.7725    2.8319    2.7489 H         1 <0>         0.1255
     36 H5         -0.8002    2.2307    4.4240 H         1 <0>         0.1219
     37 H6         -2.0660    0.2620    3.7215 H         1 <0>         0.1327
     38 H7         -2.0783    0.9864    2.0955 H         1 <0>         0.1416
     39 H8         -2.4666   -1.5051    2.0746 H         1 <0>         0.1275
     40 H9         -1.0219   -1.0146    1.1508 H         1 <0>         0.0890
     41 H10         1.1177   -2.0680    4.1740 H         1 <0>         0.1267
     42 H11         1.3537   -1.3877    2.5423 H         1 <0>         0.0886
     43 H12         1.4924    0.4257    4.1870 H         1 <0>         0.1415
     44 H13        -0.0723   -0.0511    4.8892 H         1 <0>         0.1327
     45 H14        -3.0239   -2.9571    2.5707 H         1 <0>         0.1270
     46 H15        -3.8011   -5.1702    3.3154 H         1 <0>         0.1319
     47 H16        -0.0066   -5.9070    5.1189 H         1 <0>         0.1308
     48 H17         0.7845   -3.7003    4.3696 H         1 <0>         0.1243
     49 H18        -3.0103  -11.7077    6.2384 H         1 <0>         0.1405
     50 H19        -2.3054   -9.5696    9.8655 H         1 <0>         0.1421
     51 H20        -1.8972   -7.5197    8.5828 H         1 <0>         0.1400
     52 H21        -2.1064  -12.4363    9.0028 H         1 <0>         0.3946
     53 H22        -0.0436   -7.1836    2.0324 H         1 <0>         0.1245
     54 H23         2.4061   -7.3397    2.2156 H         1 <0>         0.1294
     55 H24         1.9890   -9.4019    5.9356 H         1 <0>         0.1303
     56 H25        -0.4596   -9.2336    5.7494 H         1 <0>         0.1315
     57 H26         4.1138   -7.7218    4.6501 H         1 <0>         0.3911
     58 H27         0.3248    0.8122    2.1135 H         1 <0>         0.4248
@<TRIPOS>BOND
     1    1    2 1
     2    1   34 1
     3    1   35 1
     4    1   36 1
     5    2    7 1
     6    2    3 1
     7    2   58 1
     8    3    4 1
     9    3   37 1
    10    3   38 1
    11    4    5 1
    12    4   39 1
    13    4   40 1
    14    5    6 1
    15    5    8 1
    16    6    7 1
    17    6   41 1
    18    6   42 1
    19    7   43 1
    20    7   44 1
    21    8   13 ar
    22    8    9 ar
    23    9   10 ar
    24    9   45 1
    25   10   11 ar
    26   10   46 1
    27   11   12 ar
    28   11   14 1
    29   12   13 ar
    30   12   47 1
    31   13   48 1
    32   14   15 1
    33   14   25 1
    34   14   16 1
    35   16   17 1
    36   16   18 1
    37   16   27 1
    38   18   19 1
    39   19   24 ar
    40   19   20 ar
    41   20   21 ar
    42   20   49 1
    43   21   22 ar
    44   21   26 1
    45   22   23 ar
    46   22   50 1
    47   23   24 ar
    48   23   51 1
    49   24   25 1
    50   26   52 1
    51   27   32 ar
    52   27   28 ar
    53   28   29 ar
    54   28   53 1
    55   29   30 ar
    56   29   54 1
    57   30   31 ar
    58   30   33 1
    59   31   32 ar
    60   31   55 1
    61   32   56 1
    62   33   57 1
@<TRIPOS>MOLECULE
CHEMBL311640
   29    32     0     0     0
SMALL
USER_CHARGES

@<TRIPOS>ATOM
      1 C1         -0.0168    1.3885    0.0097 C.ar      1 <0>        -0.1606
      2 C2          1.1527    2.0941    0.0023 C.ar      1 <0>        -0.0259
      3 C3          2.3723    1.4154   -0.0130 C.ar      1 <0>        -0.1415
      4 C4          2.4013    0.0095   -0.0209 C.ar      1 <0>         0.1207
      5 C5          1.2031   -0.6922   -0.0132 C.ar      1 <0>        -0.1466
      6 C6          0.0021   -0.0041    0.0020 C.ar      1 <0>         0.1674
      7 O1         -1.1683   -0.6931    0.0095 O.3       1 <0>        -0.4885
      8 O2          3.6917   -0.3809   -0.0354 O.3       1 <0>        -0.1477
      9 C7          4.5227    0.6865   -0.0375 C.2       1 <0>        -0.1116
     10 C8          3.7761    1.8455   -0.0241 C.2       1 <0>         0.1074
     11 O3          4.3482    3.0636   -0.0226 O.3       1 <0>        -0.1962
     12 C9          5.6861    3.2370   -0.0337 C.ar      1 <0>         0.1941
     13 C10         6.2332    4.5115   -0.0309 C.ar      1 <0>        -0.1829
     14 C11         7.6091    4.6767   -0.0426 C.ar      1 <0>         0.2023
     15 C12         8.4556    3.5731   -0.0567 C.ar      1 <0>        -0.2047
     16 C13         7.9296    2.2950   -0.0592 C.ar      1 <0>         0.2293
     17 C14         6.5390    2.1201   -0.0479 C.ar      1 <0>        -0.2563
     18 C15         5.9413    0.7758   -0.0498 C.2       1 <0>         0.4567
     19 O4          6.6379   -0.2259   -0.0617 O.2       1 <0>        -0.4280
     20 O5          8.7538    1.2169   -0.0735 O.3       1 <0>        -0.4714
     21 O6          8.1359    5.9279   -0.0406 O.3       1 <0>        -0.4856
     22 H1         -0.9607    1.9130    0.0260 H         1 <0>         0.1473
     23 H2          1.1338    3.1739    0.0079 H         1 <0>         0.1448
     24 H3          1.2081   -1.7722   -0.0194 H         1 <0>         0.1515
     25 H4         -1.5157   -0.8879   -0.8716 H         1 <0>         0.4024
     26 H5          5.5862    5.3762   -0.0200 H         1 <0>         0.1571
     27 H6          9.5261    3.7152   -0.0660 H         1 <0>         0.1545
     28 H7          9.0011    0.8992    0.8058 H         1 <0>         0.4058
     29 H8          8.2966    6.2856    0.8433 H         1 <0>         0.4059
@<TRIPOS>BOND
     1    1    6 ar
     2    1    2 ar
     3    1   22 1
     4    2    3 ar
     5    2   23 1
     6    3   10 1
     7    3    4 ar
     8    4    5 ar
     9    4    8 1
    10    5    6 ar
    11    5   24 1
    12    6    7 1
    13    7   25 1
    14    8    9 1
    15    9   18 1
    16    9   10 2
    17   10   11 1
    18   11   12 1
    19   12   17 ar
    20   12   13 ar
    21   13   14 ar
    22   13   26 1
    23   14   15 ar
    24   14   21 1
    25   15   16 ar
    26   15   27 1
    27   16   17 ar
    28   16   20 1
    29   17   18 1
    30   18   19 2
    31   20   28 1
    32   21   29 1
@<TRIPOS>MOLECULE
CHEMBL290490
   93    96     0     0     0
SMALL
USER_CHARGES

@<TRIPOS>ATOM
      1 C1         -0.0187    1.5258    0.0104 C.3       1 <0>        -0.1525
      2 C2          0.0021   -0.0041    0.0020 C.3       1 <0>        -0.1222
      3 C3          0.7421   -0.5109    1.2415 C.3       1 <0>        -0.1341
      4 C4          0.7628   -2.0407    1.2331 C.3       1 <0>         0.1127
      5 N1          1.4714   -2.5260    2.4200 N.am      1 <0>        -0.6218
      6 C5          0.7331   -2.7871    3.6582 C.3       1 <0>         0.0761
      7 C6          2.8024   -2.7324    2.3728 C.2       1 <0>         0.5108
      8 O1          3.4136   -2.5163    1.3478 O.2       1 <0>        -0.5366
      9 C7          3.5313   -3.2316    3.5937 C.3       1 <0>        -0.1393
     10 C8          5.0201   -3.3797    3.2738 C.3       1 <0>        -0.1055
     11 C9          5.7601   -3.8865    4.5134 C.3       1 <0>        -0.1195
     12 C10         7.2490   -4.0346    4.1935 C.3       1 <0>        -0.1207
     13 C11         7.9890   -4.5414    5.4330 C.3       1 <0>        -0.1194
     14 C12         9.4778   -4.6895    5.1132 C.3       1 <0>        -0.1211
     15 C13        10.2178   -5.1963    6.3527 C.3       1 <0>        -0.1183
     16 C14        11.7066   -5.3444    6.0328 C.3       1 <0>        -0.1155
     17 C15        12.4466   -5.8512    7.2723 C.3       1 <0>        -0.0991
     18 C16        13.9355   -5.9993    6.9525 C.3       1 <0>        -0.1134
     19 S1         14.8128   -6.6002    8.4221 S.3       1 <0>        -0.1841
     20 C17        16.5408   -6.7201    7.8832 C.3       1 <0>        -0.1052
     21 H1         16.8720   -5.7614    7.4840 H         1 <0>         0.1167
     22 C18        17.4279   -7.1279    9.0636 C.3       1 <0>        -0.0461
     23 C19        16.9089   -8.4281    9.6663 C.3       1 <0>        -0.0532
     24 C20        17.8578   -8.8549   10.7897 C.3       1 <0>        -0.1106
     25 C21        17.8219   -7.7885   11.8827 C.3       1 <0>        -0.1112
     26 C22        18.3007   -6.4378   11.3471 C.3       1 <0>        -0.0434
     27 C23        17.4969   -6.0296   10.0975 C.3       1 <0>        -0.0708
     28 C24        16.1150   -5.6301   10.6311 C.3       1 <0>        -0.1102
     29 C25        16.3358   -5.1951   12.0940 C.3       1 <0>        -0.1566
     30 C26        17.8446   -5.3632   12.3778 C.3       1 <0>         0.1026
     31 H2         18.0052   -5.7172   13.3961 H         1 <0>         0.0590
     32 O2         18.5364   -4.1322   12.1583 O.3       1 <0>        -0.5594
     33 C27        19.8123   -6.4149   11.1118 C.3       1 <0>        -0.1301
     34 C28        16.8103   -9.5097    8.6283 C.ar      1 <0>        -0.0227
     35 C29        16.8361  -10.8342    9.0257 C.ar      1 <0>        -0.1159
     36 C30        16.7422  -11.8475    8.0914 C.ar      1 <0>        -0.1070
     37 C31        16.6191  -11.5491    6.7404 C.ar      1 <0>         0.0902
     38 C32        16.5930  -10.2288    6.3261 C.ar      1 <0>        -0.0857
     39 C33        16.6915   -9.2035    7.2703 C.ar      1 <0>        -0.1443
     40 C34        16.6771   -7.7949    6.8235 C.2       1 <0>         0.4069
     41 O3         16.7720   -7.5077    5.6493 O.2       1 <0>        -0.4402
     42 O4         16.5248  -12.5515    5.8274 O.3       1 <0>        -0.4952
     43 H3          1.0039    1.9031    0.0027 H         1 <0>         0.0541
     44 H4         -0.5459    1.8868   -0.8726 H         1 <0>         0.0556
     45 H5         -0.5289    1.8773    0.9072 H         1 <0>         0.0531
     46 H6         -1.0205   -0.3814    0.0098 H         1 <0>         0.0623
     47 H7          0.5123   -0.3556   -0.8948 H         1 <0>         0.0642
     48 H8          1.7647   -0.1336    1.2338 H         1 <0>         0.0659
     49 H9          0.2319   -0.1594    2.1383 H         1 <0>         0.0617
     50 H10        -0.2598   -2.4180    1.2409 H         1 <0>         0.0760
     51 H11         1.2730   -2.3923    0.3363 H         1 <0>         0.0837
     52 H12         0.3891   -3.8213    3.6649 H         1 <0>         0.0582
     53 H13         1.3865   -2.6159    4.5137 H         1 <0>         0.0735
     54 H14        -0.1255   -2.1182    3.7171 H         1 <0>         0.0726
     55 H15         3.4039   -2.5198    4.4093 H         1 <0>         0.0925
     56 H16         3.1251   -4.1990    3.8891 H         1 <0>         0.0924
     57 H17         5.1475   -4.0915    2.4583 H         1 <0>         0.0693
     58 H18         5.4263   -2.4122    2.9785 H         1 <0>         0.0691
     59 H19         5.6328   -3.1747    5.3289 H         1 <0>         0.0617
     60 H20         5.3540   -4.8539    4.8087 H         1 <0>         0.0618
     61 H21         7.3763   -4.7464    3.3779 H         1 <0>         0.0621
     62 H22         7.6551   -3.0671    3.8981 H         1 <0>         0.0621
     63 H23         7.8616   -3.8296    6.2486 H         1 <0>         0.0608
     64 H24         7.5828   -5.5088    5.7284 H         1 <0>         0.0606
     65 H25         9.6052   -5.4013    4.2976 H         1 <0>         0.0612
     66 H26         9.8839   -3.7220    4.8178 H         1 <0>         0.0615
     67 H27        10.0904   -4.4845    7.1683 H         1 <0>         0.0623
     68 H28         9.8117   -6.1637    6.6480 H         1 <0>         0.0618
     69 H29        11.8340   -6.0562    5.2172 H         1 <0>         0.0631
     70 H30        12.1128   -4.3769    5.7375 H         1 <0>         0.0641
     71 H31        12.3193   -5.1394    8.0879 H         1 <0>         0.0721
     72 H32        12.0405   -6.8186    7.5677 H         1 <0>         0.0702
     73 H33        14.0628   -6.7111    6.1369 H         1 <0>         0.0775
     74 H34        14.3416   -5.0318    6.6571 H         1 <0>         0.0833
     75 H35        18.4350   -7.3110    8.6889 H         1 <0>         0.0872
     76 H36        15.9154   -8.2590   10.0815 H         1 <0>         0.1047
     77 H37        17.5343   -9.8117   11.1996 H         1 <0>         0.0753
     78 H38        18.8713   -8.9463   10.3992 H         1 <0>         0.0717
     79 H39        16.8007   -7.6864   12.2498 H         1 <0>         0.0701
     80 H40        18.4677   -8.0968   12.7049 H         1 <0>         0.0686
     81 H41        17.9582   -5.1487    9.6509 H         1 <0>         0.0801
     82 H42        15.7129   -4.8007   10.0491 H         1 <0>         0.0771
     83 H43        15.4361   -6.4820   10.5908 H         1 <0>         0.0768
     84 H44        16.0453   -4.1524   12.2219 H         1 <0>         0.0690
     85 H45        15.7564   -5.8300   12.7643 H         1 <0>         0.0695
     86 H46        18.2901   -3.4276   12.7732 H         1 <0>         0.3766
     87 H47        20.0769   -7.1737   10.3754 H         1 <0>         0.0541
     88 H48        20.1079   -5.4325   10.7435 H         1 <0>         0.0657
     89 H49        20.3291   -6.6223   12.0488 H         1 <0>         0.0558
     90 H50        16.9307  -11.0779   10.0736 H         1 <0>         0.1379
     91 H51        16.7642  -12.8782    8.4134 H         1 <0>         0.1352
     92 H52        16.4972   -9.9919    5.2767 H         1 <0>         0.1379
     93 H53        15.6180  -12.8335    5.6451 H         1 <0>         0.3925
@<TRIPOS>BOND
     1    1    2 1
     2    1   43 1
     3    1   44 1
     4    1   45 1
     5    2    3 1
     6    2   46 1
     7    2   47 1
     8    3    4 1
     9    3   48 1
    10    3   49 1
    11    4    5 1
    12    4   50 1
    13    4   51 1
    14    5    6 1
    15    5    7 am
    16    6   52 1
    17    6   53 1
    18    6   54 1
    19    7    8 2
    20    7    9 1
    21    9   10 1
    22    9   55 1
    23    9   56 1
    24   10   11 1
    25   10   57 1
    26   10   58 1
    27   11   12 1
    28   11   59 1
    29   11   60 1
    30   12   13 1
    31   12   61 1
    32   12   62 1
    33   13   14 1
    34   13   63 1
    35   13   64 1
    36   14   15 1
    37   14   65 1
    38   14   66 1
    39   15   16 1
    40   15   67 1
    41   15   68 1
    42   16   17 1
    43   16   69 1
    44   16   70 1
    45   17   18 1
    46   17   71 1
    47   17   72 1
    48   18   19 1
    49   18   73 1
    50   18   74 1
    51   19   20 1
    52   20   21 1
    53   20   40 1
    54   20   22 1
    55   22   27 1
    56   22   23 1
    57   22   75 1
    58   23   24 1
    59   23   34 1
    60   23   76 1
    61   24   25 1
    62   24   77 1
    63   24   78 1
    64   25   26 1
    65   25   79 1
    66   25   80 1
    67   26   30 1
    68   26   27 1
    69   26   33 1
    70   27   28 1
    71   27   81 1
    72   28   29 1
    73   28   82 1
    74   28   83 1
    75   29   30 1
    76   29   84 1
    77   29   85 1
    78   30   31 1
    79   30   32 1
    80   32   86 1
    81   33   87 1
    82   33   88 1
    83   33   89 1
    84   34   39 ar
    85   34   35 ar
    86   35   36 ar
    87   35   90 1
    88   36   37 ar
    89   36   91 1
    90   37   38 ar
    91   37   42 1
    92   38   39 ar
    93   38   92 1
    94   39   40 1
    95   40   41 2
    96   42   93 1
@<TRIPOS>MOLECULE
CHEMBL290490__1
   93    96     0     0     0
SMALL
USER_CHARGES

@<TRIPOS>ATOM
      1 C1          0.0103    1.6098    0.0237 C.3       1 <0>        -0.1525
      2 C2          0.0279    0.0799    0.0089 C.3       1 <0>        -0.1222
      3 C3          0.7655   -0.4336    1.2471 C.3       1 <0>        -0.1341
      4 C4          0.7832   -1.9634    1.2324 C.3       1 <0>         0.1127
      5 N1          1.4894   -2.4551    2.4180 N.am      1 <0>        -0.6218
      6 C5          0.7492   -2.7197    3.6543 C.3       1 <0>         0.0761
      7 C6          2.8201   -2.6639    2.3714 C.2       1 <0>         0.5108
      8 O1          3.4329   -2.4448    1.3480 O.2       1 <0>        -0.5366
      9 C7          3.5466   -3.1697    3.5910 C.3       1 <0>        -0.1394
     10 C8          5.0355   -3.3194    3.2722 C.3       1 <0>        -0.1055
     11 C9          5.7731   -3.8329    4.5105 C.3       1 <0>        -0.1195
     12 C10         7.2620   -3.9827    4.1916 C.3       1 <0>        -0.1207
     13 C11         7.9995   -4.4961    5.4299 C.3       1 <0>        -0.1195
     14 C12         9.4884   -4.6459    5.1110 C.3       1 <0>        -0.1211
     15 C13        10.2260   -5.1594    6.3493 C.3       1 <0>        -0.1184
     16 C14        11.7149   -5.3091    6.0304 C.3       1 <0>        -0.1152
     17 C15        12.4525   -5.8226    7.2687 C.3       1 <0>        -0.1007
     18 C16        13.9414   -5.9724    6.9498 C.3       1 <0>        -0.0990
     19 S1         14.8159   -6.5812    8.4179 S.3       1 <0>        -0.1981
     20 C17        16.5442   -6.7023    7.8804 C.3       1 <0>        -0.1044
     21 H1         16.8779   -5.7427    7.4856 H         1 <0>         0.1170
     22 C18        17.4290   -7.1170    9.0596 C.3       1 <0>        -0.0486
     23 C19        16.8880   -8.4209    9.6566 C.3       1 <0>        -0.0527
     24 C20        17.7153   -8.8775   10.8516 C.3       1 <0>        -0.1137
     25 C21        17.8015   -7.7703   11.9177 C.3       1 <0>        -0.1030
     26 C22        18.3905   -6.5427   11.2529 C.3       1 <0>        -0.0577
     27 C23        17.3932   -6.0728   10.1582 C.3       1 <0>        -0.0836
     28 C24        17.9602   -4.6962    9.7951 C.3       1 <0>        -0.1139
     29 C25        18.3395   -4.1005   11.1784 C.3       1 <0>        -0.1547
     30 C26        18.5602   -5.3051   12.1271 C.3       1 <0>         0.1126
     31 H2         17.8159   -5.3002   12.9234 H         1 <0>         0.0595
     32 O2         19.8777   -5.2658   12.6793 O.3       1 <0>        -0.5597
     33 C27        19.7279   -6.9010   10.6017 C.3       1 <0>        -0.1386
     34 C28        16.8044   -9.4970    8.6139 C.ar      1 <0>        -0.0221
     35 C29        16.8348  -10.8236    9.0040 C.ar      1 <0>        -0.1170
     36 C30        16.7525  -11.8323    8.0638 C.ar      1 <0>        -0.1065
     37 C31        16.6366  -11.5271    6.7137 C.ar      1 <0>         0.0900
     38 C32        16.6073  -10.2047    6.3063 C.ar      1 <0>        -0.0854
     39 C33        16.6950   -9.1840    7.2564 C.ar      1 <0>        -0.1447
     40 C34        16.6798   -7.7732    6.8166 C.2       1 <0>         0.4070
     41 O3         16.7735   -7.4809    5.6436 O.2       1 <0>        -0.4408
     42 O4         16.5527  -12.5248    5.7947 O.3       1 <0>        -0.4951
     43 H3          1.0336    1.9850    0.0186 H         1 <0>         0.0541
     44 H4         -0.5152    1.9756   -0.8585 H         1 <0>         0.0556
     45 H5         -0.5002    1.9586    0.9213 H         1 <0>         0.0531
     46 H6         -0.9954   -0.2953    0.0139 H         1 <0>         0.0623
     47 H7          0.5384   -0.2689   -0.8888 H         1 <0>         0.0642
     48 H8          1.7889   -0.0583    1.2421 H         1 <0>         0.0659
     49 H9          0.2550   -0.0847    2.1448 H         1 <0>         0.0617
     50 H10        -0.2402   -2.3386    1.2374 H         1 <0>         0.0760
     51 H11         1.2937   -2.3122    0.3347 H         1 <0>         0.0837
     52 H12         0.4031   -3.7533    3.6563 H         1 <0>         0.0582
     53 H13         1.4020   -2.5535    4.5112 H         1 <0>         0.0735
     54 H14        -0.1081   -2.0493    3.7151 H         1 <0>         0.0727
     55 H15         3.4197   -2.4610    4.4094 H         1 <0>         0.0925
     56 H16         3.1382   -4.1375    3.8819 H         1 <0>         0.0925
     57 H17         5.1623   -4.0281    2.4538 H         1 <0>         0.0692
     58 H18         5.4439   -2.3516    2.9813 H         1 <0>         0.0690
     59 H19         5.6462   -3.1242    5.3288 H         1 <0>         0.0617
     60 H20         5.3646   -4.8007    4.8013 H         1 <0>         0.0618
     61 H21         7.3888   -4.6913    3.3732 H         1 <0>         0.0621
     62 H22         7.6704   -3.0148    3.9007 H         1 <0>         0.0621
     63 H23         7.8727   -3.7874    6.2482 H         1 <0>         0.0608
     64 H24         7.5911   -5.4640    5.7207 H         1 <0>         0.0608
     65 H25         9.6153   -5.3546    4.2926 H         1 <0>         0.0614
     66 H26         9.8969   -3.6781    4.8201 H         1 <0>         0.0615
     67 H27        10.0992   -4.4507    7.1677 H         1 <0>         0.0625
     68 H28         9.8176   -6.1272    6.6401 H         1 <0>         0.0622
     69 H29        11.8418   -6.0178    5.2120 H         1 <0>         0.0637
     70 H30        12.1233   -4.3413    5.7396 H         1 <0>         0.0644
     71 H31        12.3257   -5.1139    8.0871 H         1 <0>         0.0729
     72 H32        12.0441   -6.7904    7.5595 H         1 <0>         0.0717
     73 H33        14.0682   -6.6811    6.1314 H         1 <0>         0.0806
     74 H34        14.3498   -5.0045    6.6590 H         1 <0>         0.0841
     75 H35        18.4548   -7.2549    8.7178 H         1 <0>         0.1003
     76 H36        15.8728   -8.2323   10.0057 H         1 <0>         0.1004
     77 H37        17.2530   -9.7617   11.2903 H         1 <0>         0.0728
     78 H38        18.7210   -9.1298   10.5153 H         1 <0>         0.0741
     79 H39        16.8052   -7.5436   12.2973 H         1 <0>         0.0674
     80 H40        18.4455   -8.0932   12.7356 H         1 <0>         0.0724
     81 H41        16.3870   -5.9874   10.5687 H         1 <0>         0.0934
     82 H42        18.8429   -4.7971    9.1635 H         1 <0>         0.0704
     83 H43        17.2027   -4.0838    9.3060 H         1 <0>         0.0697
     84 H44        19.2562   -3.5165   11.0957 H         1 <0>         0.0735
     85 H45        17.5289   -3.4743   11.5511 H         1 <0>         0.0692
     86 H46        20.0443   -4.4995   13.2451 H         1 <0>         0.3760
     87 H47        19.5872   -7.7408    9.9212 H         1 <0>         0.0582
     88 H48        20.1031   -6.0418   10.0459 H         1 <0>         0.0560
     89 H49        20.4460   -7.1758   11.3743 H         1 <0>         0.0646
     90 H50        16.9239  -11.0726   10.0511 H         1 <0>         0.1381
     91 H51        16.7780  -12.8645    8.3804 H         1 <0>         0.1352
     92 H52        16.5177   -9.9627    5.2576 H         1 <0>         0.1381
     93 H53        15.6483  -12.8099    5.6051 H         1 <0>         0.3925
@<TRIPOS>BOND
     1    1    2 1
     2    1   43 1
     3    1   44 1
     4    1   45 1
     5    2    3 1
     6    2   46 1
     7    2   47 1
     8    3    4 1
     9    3   48 1
    10    3   49 1
    11    4    5 1
    12    4   50 1
    13    4   51 1
    14    5    6 1
    15    5    7 am
    16    6   52 1
    17    6   53 1
    18    6   54 1
    19    7    8 2
    20    7    9 1
    21    9   10 1
    22    9   55 1
    23    9   56 1
    24   10   11 1
    25   10   57 1
    26   10   58 1
    27   11   12 1
    28   11   59 1
    29   11   60 1
    30   12   13 1
    31   12   61 1
    32   12   62 1
    33   13   14 1
    34   13   63 1
    35   13   64 1
    36   14   15 1
    37   14   65 1
    38   14   66 1
    39   15   16 1
    40   15   67 1
    41   15   68 1
    42   16   17 1
    43   16   69 1
    44   16   70 1
    45   17   18 1
    46   17   71 1
    47   17   72 1
    48   18   19 1
    49   18   73 1
    50   18   74 1
    51   19   20 1
    52   20   21 1
    53   20   40 1
    54   20   22 1
    55   22   27 1
    56   22   23 1
    57   22   75 1
    58   23   24 1
    59   23   34 1
    60   23   76 1
    61   24   25 1
    62   24   77 1
    63   24   78 1
    64   25   26 1
    65   25   79 1
    66   25   80 1
    67   26   30 1
    68   26   27 1
    69   26   33 1
    70   27   28 1
    71   27   81 1
    72   28   29 1
    73   28   82 1
    74   28   83 1
    75   29   30 1
    76   29   84 1
    77   29   85 1
    78   30   31 1
    79   30   32 1
    80   32   86 1
    81   33   87 1
    82   33   88 1
    83   33   89 1
    84   34   39 ar
    85   34   35 ar
    86   35   36 ar
    87   35   90 1
    88   36   37 ar
    89   36   91 1
    90   37   38 ar
    91   37   42 1
    92   38   39 ar
    93   38   92 1
    94   39   40 1
    95   40   41 2
    96   42   93 1
@<TRIPOS>MOLECULE
CHEMBL290490__2
   93    96     0     0     0
SMALL
USER_CHARGES

@<TRIPOS>ATOM
      1 C1         -0.0187    1.5258    0.0104 C.3       1 <0>        -0.1525
      2 C2          0.0021   -0.0041    0.0020 C.3       1 <0>        -0.1222
      3 C3          0.7421   -0.5109    1.2415 C.3       1 <0>        -0.1340
      4 C4          0.7628   -2.0407    1.2331 C.3       1 <0>         0.1127
      5 N1          1.4714   -2.5260    2.4200 N.am      1 <0>        -0.6217
      6 C5          0.7331   -2.7871    3.6582 C.3       1 <0>         0.0761
      7 C6          2.8024   -2.7324    2.3728 C.2       1 <0>         0.5108
      8 O1          3.4136   -2.5163    1.3478 O.2       1 <0>        -0.5366
      9 C7          3.5313   -3.2316    3.5937 C.3       1 <0>        -0.1393
     10 C8          5.0201   -3.3797    3.2738 C.3       1 <0>        -0.1055
     11 C9          5.7601   -3.8865    4.5134 C.3       1 <0>        -0.1195
     12 C10         7.2490   -4.0346    4.1935 C.3       1 <0>        -0.1207
     13 C11         7.9890   -4.5414    5.4330 C.3       1 <0>        -0.1194
     14 C12         9.4778   -4.6895    5.1132 C.3       1 <0>        -0.1211
     15 C13        10.2178   -5.1963    6.3527 C.3       1 <0>        -0.1182
     16 C14        11.7066   -5.3444    6.0328 C.3       1 <0>        -0.1154
     17 C15        12.4466   -5.8512    7.2723 C.3       1 <0>        -0.0989
     18 C16        13.9355   -5.9993    6.9525 C.3       1 <0>        -0.1142
     19 S1         14.8128   -6.6002    8.4221 S.3       1 <0>        -0.1812
     20 C17        16.5385   -6.7199    7.8839 C.3       1 <0>        -0.0979
     21 H1         16.8620   -5.7532    7.4849 H         1 <0>         0.1195
     22 C18        17.4660   -7.1911    8.9853 C.3       1 <0>        -0.0469
     23 C19        17.1098   -8.5563    9.5365 C.3       1 <0>        -0.0431
     24 C20        15.9946   -8.4649   10.5732 C.3       1 <0>        -0.1136
     25 C21        16.4852   -7.6028   11.7364 C.3       1 <0>        -0.1037
     26 C22        16.8873   -6.2170   11.2938 C.3       1 <0>        -0.0465
     27 C23        17.7903   -6.1782   10.0583 C.3       1 <0>        -0.0646
     28 C24        17.6206   -4.7365    9.5242 C.3       1 <0>        -0.1194
     29 C25        16.1931   -4.3096    9.9172 C.3       1 <0>        -0.1546
     30 C26        15.7050   -5.2897   11.0005 C.3       1 <0>         0.1158
     31 H2         14.8411   -5.8539   10.6633 H         1 <0>         0.0772
     32 O2         15.3588   -4.5603   12.1860 O.3       1 <0>        -0.5675
     33 C27        17.6783   -5.5877   12.4632 C.3       1 <0>        -0.1326
     34 C28        16.7654   -9.5467    8.4606 C.ar      1 <0>        -0.0209
     35 C29        16.6425  -10.8837    8.8019 C.ar      1 <0>        -0.1128
     36 C30        16.3631  -11.8321    7.8377 C.ar      1 <0>        -0.1073
     37 C31        16.2050  -11.4585    6.5091 C.ar      1 <0>         0.0915
     38 C32        16.3134  -10.1257    6.1526 C.ar      1 <0>        -0.0877
     39 C33        16.5813   -9.1643    7.1318 C.ar      1 <0>        -0.1440
     40 C34        16.6214   -7.7393    6.7546 C.2       1 <0>         0.4036
     41 O3         16.7140   -7.3869    5.6015 O.2       1 <0>        -0.4375
     42 O4         15.9460  -12.3985    5.5630 O.3       1 <0>        -0.4948
     43 H3          1.0039    1.9031    0.0027 H         1 <0>         0.0541
     44 H4         -0.5459    1.8868   -0.8726 H         1 <0>         0.0556
     45 H5         -0.5289    1.8773    0.9072 H         1 <0>         0.0531
     46 H6         -1.0205   -0.3814    0.0098 H         1 <0>         0.0623
     47 H7          0.5123   -0.3556   -0.8948 H         1 <0>         0.0641
     48 H8          1.7647   -0.1336    1.2338 H         1 <0>         0.0659
     49 H9          0.2319   -0.1594    2.1383 H         1 <0>         0.0617
     50 H10        -0.2598   -2.4180    1.2409 H         1 <0>         0.0760
     51 H11         1.2730   -2.3923    0.3363 H         1 <0>         0.0837
     52 H12         0.3891   -3.8213    3.6649 H         1 <0>         0.0582
     53 H13         1.3865   -2.6159    4.5137 H         1 <0>         0.0735
     54 H14        -0.1255   -2.1182    3.7171 H         1 <0>         0.0727
     55 H15         3.4039   -2.5198    4.4093 H         1 <0>         0.0925
     56 H16         3.1251   -4.1990    3.8891 H         1 <0>         0.0924
     57 H17         5.1475   -4.0915    2.4583 H         1 <0>         0.0692
     58 H18         5.4263   -2.4122    2.9785 H         1 <0>         0.0690
     59 H19         5.6328   -3.1747    5.3289 H         1 <0>         0.0617
     60 H20         5.3540   -4.8539    4.8087 H         1 <0>         0.0618
     61 H21         7.3763   -4.7464    3.3779 H         1 <0>         0.0621
     62 H22         7.6551   -3.0671    3.8981 H         1 <0>         0.0621
     63 H23         7.8616   -3.8296    6.2486 H         1 <0>         0.0608
     64 H24         7.5828   -5.5088    5.7284 H         1 <0>         0.0607
     65 H25         9.6052   -5.4013    4.2976 H         1 <0>         0.0612
     66 H26         9.8839   -3.7220    4.8178 H         1 <0>         0.0614
     67 H27        10.0904   -4.4845    7.1683 H         1 <0>         0.0623
     68 H28         9.8117   -6.1637    6.6480 H         1 <0>         0.0620
     69 H29        11.8340   -6.0562    5.2172 H         1 <0>         0.0632
     70 H30        12.1128   -4.3769    5.7375 H         1 <0>         0.0639
     71 H31        12.3193   -5.1394    8.0879 H         1 <0>         0.0716
     72 H32        12.0405   -6.8186    7.5677 H         1 <0>         0.0709
     73 H33        14.0628   -6.7111    6.1369 H         1 <0>         0.0782
     74 H34        14.3416   -5.0318    6.6571 H         1 <0>         0.0822
     75 H35        18.4495   -7.3628    8.4643 H         1 <0>         0.0739
     76 H36        18.0114   -8.9435   10.0559 H         1 <0>         0.0923
     77 H37        15.0834   -8.0576   10.1593 H         1 <0>         0.0878
     78 H38        15.7782   -9.4718   10.9574 H         1 <0>         0.0677
     79 H39        15.6847   -7.5214   12.4754 H         1 <0>         0.0701
     80 H40        17.3411   -8.0922   12.2043 H         1 <0>         0.0663
     81 H41        18.8494   -6.3275   10.3838 H         1 <0>         0.0855
     82 H42        18.3504   -4.0672   10.0020 H         1 <0>         0.0664
     83 H43        17.7655   -4.6824    8.4467 H         1 <0>         0.0660
     84 H44        16.2119   -3.2931   10.3240 H         1 <0>         0.0648
     85 H45        15.5345   -4.3320    9.0512 H         1 <0>         0.0793
     86 H46        14.6155   -3.9524   12.0708 H         1 <0>         0.3729
     87 H47        18.5637   -6.1895   12.6684 H         1 <0>         0.0457
     88 H48        17.9812   -4.5758   12.1941 H         1 <0>         0.0541
     89 H49        17.0479   -5.5541   13.3518 H         1 <0>         0.0650
     90 H50        16.7691  -11.1856    9.8309 H         1 <0>         0.1356
     91 H51        16.2691  -12.8712    8.1170 H         1 <0>         0.1354
     92 H52        16.1920   -9.8295    5.1209 H         1 <0>         0.1374
     93 H53        15.0040  -12.5653    5.4219 H         1 <0>         0.3927
@<TRIPOS>BOND
     1    1    2 1
     2    1   43 1
     3    1   44 1
     4    1   45 1
     5    2    3 1
     6    2   46 1
     7    2   47 1
     8    3    4 1
     9    3   48 1
    10    3   49 1
    11    4    5 1
    12    4   50 1
    13    4   51 1
    14    5    6 1
    15    5    7 am
    16    6   52 1
    17    6   53 1
    18    6   54 1
    19    7    8 2
    20    7    9 1
    21    9   10 1
    22    9   55 1
    23    9   56 1
    24   10   11 1
    25   10   57 1
    26   10   58 1
    27   11   12 1
    28   11   59 1
    29   11   60 1
    30   12   13 1
    31   12   61 1
    32   12   62 1
    33   13   14 1
    34   13   63 1
    35   13   64 1
    36   14   15 1
    37   14   65 1
    38   14   66 1
    39   15   16 1
    40   15   67 1
    41   15   68 1
    42   16   17 1
    43   16   69 1
    44   16   70 1
    45   17   18 1
    46   17   71 1
    47   17   72 1
    48   18   19 1
    49   18   73 1
    50   18   74 1
    51   19   20 1
    52   20   21 1
    53   20   40 1
    54   20   22 1
    55   22   27 1
    56   22   23 1
    57   22   75 1
    58   23   24 1
    59   23   34 1
    60   23   76 1
    61   24   25 1
    62   24   77 1
    63   24   78 1
    64   25   26 1
    65   25   79 1
    66   25   80 1
    67   26   30 1
    68   26   27 1
    69   26   33 1
    70   27   28 1
    71   27   81 1
    72   28   29 1
    73   28   82 1
    74   28   83 1
    75   29   30 1
    76   29   84 1
    77   29   85 1
    78   30   31 1
    79   30   32 1
    80   32   86 1
    81   33   87 1
    82   33   88 1
    83   33   89 1
    84   34   39 ar
    85   34   35 ar
    86   35   36 ar
    87   35   90 1
    88   36   37 ar
    89   36   91 1
    90   37   38 ar
    91   37   42 1
    92   38   39 ar
    93   38   92 1
    94   39   40 1
    95   40   41 2
    96   42   93 1
@<TRIPOS>MOLECULE
CHEMBL290490__3
   93    96     0     0     0
SMALL
USER_CHARGES

@<TRIPOS>ATOM
      1 C1          0.3307    1.8110   -0.2849 C.3       1 <0>        -0.1525
      2 C2          0.3285    0.2810   -0.2955 C.3       1 <0>        -0.1222
      3 C3          1.0390   -0.2386    0.9560 C.3       1 <0>        -0.1341
      4 C4          1.0368   -1.7686    0.9454 C.3       1 <0>         0.1127
      5 N1          1.7171   -2.2662    2.1437 N.am      1 <0>        -0.6218
      6 C5          0.9534   -2.5177    3.3683 C.3       1 <0>         0.0761
      7 C6          3.0455   -2.4925    2.1194 C.2       1 <0>         0.5109
      8 O1          3.6777   -2.2843    1.1056 O.2       1 <0>        -0.5366
      9 C7          3.7452   -3.0044    3.3521 C.3       1 <0>        -0.1394
     10 C8          5.2370   -3.1745    3.0580 C.3       1 <0>        -0.1054
     11 C9          5.9475   -3.6942    4.3094 C.3       1 <0>        -0.1196
     12 C10         7.4393   -3.8643    4.0154 C.3       1 <0>        -0.1206
     13 C11         8.1498   -4.3840    5.2668 C.3       1 <0>        -0.1196
     14 C12         9.6416   -4.5541    4.9728 C.3       1 <0>        -0.1208
     15 C13        10.3520   -5.0738    6.2242 C.3       1 <0>        -0.1186
     16 C14        11.8438   -5.2439    5.9302 C.3       1 <0>        -0.1145
     17 C15        12.5543   -5.7636    7.1816 C.3       1 <0>        -0.0997
     18 C16        14.0461   -5.9337    6.8876 C.3       1 <0>        -0.1060
     19 S1         14.8884   -6.5498    8.3713 S.3       1 <0>        -0.1977
     20 C17        16.6236   -6.6951    7.8625 C.3       1 <0>        -0.1088
     21 H1         16.9754   -5.7407    7.4709 H         1 <0>         0.1206
     22 C18        17.4836   -7.1155    9.0595 C.3       1 <0>        -0.0476
     23 C19        18.9565   -7.1531    8.6405 C.3       1 <0>        -0.0454
     24 C20        19.8539   -7.6386    9.7755 C.3       1 <0>        -0.1155
     25 C21        19.3865   -9.0001   10.3166 C.3       1 <0>        -0.1048
     26 C22        17.9486   -8.8353   10.7680 C.3       1 <0>        -0.0539
     27 C23        17.1013   -8.5143    9.5071 C.3       1 <0>        -0.0899
     28 C24        15.6748   -8.6783   10.0428 C.3       1 <0>        -0.1137
     29 C25        15.7798   -9.9512   10.9267 C.3       1 <0>        -0.1560
     30 C26        17.2673  -10.0729   11.3422 C.3       1 <0>         0.1123
     31 H2         17.7053  -10.9763   10.9178 H         1 <0>         0.0555
     32 O2         17.3840  -10.0866   12.7664 O.3       1 <0>        -0.5594
     33 C27        17.8491   -7.6799   11.7661 C.3       1 <0>        -0.1352
     34 C28        19.1567   -8.0200    7.4283 C.ar      1 <0>        -0.0286
     35 C29        20.4140   -8.5423    7.1788 C.ar      1 <0>        -0.1166
     36 C30        20.6346   -9.3403    6.0733 C.ar      1 <0>        -0.1084
     37 C31        19.5974   -9.6297    5.1960 C.ar      1 <0>         0.0913
     38 C32        18.3338   -9.1164    5.4316 C.ar      1 <0>        -0.0863
     39 C33        18.1109   -8.3099    6.5506 C.ar      1 <0>        -0.1465
     40 C34        16.7606   -7.7680    6.8024 C.2       1 <0>         0.4060
     41 O3         15.7969   -8.1680    6.1848 O.2       1 <0>        -0.4286
     42 O4         19.8227  -10.4142    4.1093 O.3       1 <0>        -0.4951
     43 H3          1.3589    2.1728   -0.2741 H         1 <0>         0.0541
     44 H4         -0.1754    2.1812   -1.1764 H         1 <0>         0.0555
     45 H5         -0.1897    2.1690    0.6034 H         1 <0>         0.0531
     46 H6         -0.6996   -0.0807   -0.3062 H         1 <0>         0.0623
     47 H7          0.8490   -0.0769   -1.1838 H         1 <0>         0.0641
     48 H8          2.0671    0.1232    0.9667 H         1 <0>         0.0659
     49 H9          0.5185    0.1193    1.8443 H         1 <0>         0.0618
     50 H10         0.0086   -2.1304    0.9347 H         1 <0>         0.0759
     51 H11         1.5572   -2.1265    0.0571 H         1 <0>         0.0837
     52 H12         0.5937   -3.5466    3.3674 H         1 <0>         0.0582
     53 H13         1.5942   -2.3576    4.2354 H         1 <0>         0.0736
     54 H14         0.1041   -1.8360    3.4134 H         1 <0>         0.0726
     55 H15         3.6144   -2.2918    4.1664 H         1 <0>         0.0925
     56 H16         3.3194   -3.9660    3.6387 H         1 <0>         0.0925
     57 H17         5.3679   -3.8871    2.2436 H         1 <0>         0.0692
     58 H18         5.6628   -2.2129    2.7714 H         1 <0>         0.0690
     59 H19         5.8166   -2.9816    5.1238 H         1 <0>         0.0616
     60 H20         5.5217   -4.6558    4.5961 H         1 <0>         0.0619
     61 H21         7.5702   -4.5769    3.2010 H         1 <0>         0.0621
     62 H22         7.8651   -2.9027    3.7288 H         1 <0>         0.0619
     63 H23         8.0189   -3.6714    6.0812 H         1 <0>         0.0607
     64 H24         7.7240   -5.3456    5.5535 H         1 <0>         0.0608
     65 H25         9.7724   -5.2667    4.1584 H         1 <0>         0.0612
     66 H26        10.0674   -3.5925    4.6862 H         1 <0>         0.0609
     67 H27        10.2212   -4.3612    7.0386 H         1 <0>         0.0618
     68 H28         9.9262   -6.0354    6.5109 H         1 <0>         0.0621
     69 H29        11.9747   -5.9565    5.1158 H         1 <0>         0.0636
     70 H30        12.2696   -4.2823    5.6436 H         1 <0>         0.0622
     71 H31        12.4234   -5.0510    7.9960 H         1 <0>         0.0688
     72 H32        12.1285   -6.7251    7.4683 H         1 <0>         0.0708
     73 H33        14.1770   -6.6462    6.0732 H         1 <0>         0.0943
     74 H34        14.4719   -4.9721    6.6010 H         1 <0>         0.0736
     75 H35        17.3385   -6.4139    9.8810 H         1 <0>         0.1097
     76 H36        19.2610   -6.1406    8.3757 H         1 <0>         0.0933
     77 H37        20.8754   -7.7329    9.4070 H         1 <0>         0.0740
     78 H38        19.8336   -6.9076   10.5837 H         1 <0>         0.0795
     79 H39        19.4443   -9.7518    9.5294 H         1 <0>         0.0642
     80 H40        20.0086   -9.2972   11.1608 H         1 <0>         0.0709
     81 H41        17.3070   -9.2351    8.7158 H         1 <0>         0.0779
     82 H42        15.3864   -7.8150   10.6425 H         1 <0>         0.0766
     83 H43        14.9711   -8.8335    9.2250 H         1 <0>         0.0856
     84 H44        15.1517   -9.8454   11.8112 H         1 <0>         0.0734
     85 H45        15.4778  -10.8291   10.3556 H         1 <0>         0.0653
     86 H46        16.9688  -10.8516   13.1877 H         1 <0>         0.3756
     87 H47        18.2465   -6.7722   11.3120 H         1 <0>         0.0579
     88 H48        16.8052   -7.5233   12.0377 H         1 <0>         0.0578
     89 H49        18.4247   -7.9212   12.6597 H         1 <0>         0.0631
     90 H50        21.2287   -8.3239    7.8533 H         1 <0>         0.1393
     91 H51        21.6203   -9.7416    5.8895 H         1 <0>         0.1351
     92 H52        17.5236   -9.3374    4.7526 H         1 <0>         0.1391
     93 H53        19.6857  -11.3578    4.2702 H         1 <0>         0.3931
@<TRIPOS>BOND
     1    1    2 1
     2    1   43 1
     3    1   44 1
     4    1   45 1
     5    2    3 1
     6    2   46 1
     7    2   47 1
     8    3    4 1
     9    3   48 1
    10    3   49 1
    11    4    5 1
    12    4   50 1
    13    4   51 1
    14    5    6 1
    15    5    7 am
    16    6   52 1
    17    6   53 1
    18    6   54 1
    19    7    8 2
    20    7    9 1
    21    9   10 1
    22    9   55 1
    23    9   56 1
    24   10   11 1
    25   10   57 1
    26   10   58 1
    27   11   12 1
    28   11   59 1
    29   11   60 1
    30   12   13 1
    31   12   61 1
    32   12   62 1
    33   13   14 1
    34   13   63 1
    35   13   64 1
    36   14   15 1
    37   14   65 1
    38   14   66 1
    39   15   16 1
    40   15   67 1
    41   15   68 1
    42   16   17 1
    43   16   69 1
    44   16   70 1
    45   17   18 1
    46   17   71 1
    47   17   72 1
    48   18   19 1
    49   18   73 1
    50   18   74 1
    51   19   20 1
    52   20   21 1
    53   20   40 1
    54   20   22 1
    55   22   27 1
    56   22   23 1
    57   22   75 1
    58   23   24 1
    59   23   34 1
    60   23   76 1
    61   24   25 1
    62   24   77 1
    63   24   78 1
    64   25   26 1
    65   25   79 1
    66   25   80 1
    67   26   30 1
    68   26   27 1
    69   26   33 1
    70   27   28 1
    71   27   81 1
    72   28   29 1
    73   28   82 1
    74   28   83 1
    75   29   30 1
    76   29   84 1
    77   29   85 1
    78   30   31 1
    79   30   32 1
    80   32   86 1
    81   33   87 1
    82   33   88 1
    83   33   89 1
    84   34   39 ar
    85   34   35 ar
    86   35   36 ar
    87   35   90 1
    88   36   37 ar
    89   36   91 1
    90   37   38 ar
    91   37   42 1
    92   38   39 ar
    93   38   92 1
    94   39   40 1
    95   40   41 2
    96   42   93 1
@<TRIPOS>MOLECULE
CHEMBL290490__4
   93    96     0     0     0
SMALL
USER_CHARGES

@<TRIPOS>ATOM
      1 C1         -0.1202    1.8563    0.4132 C.3       1 <0>        -0.1525
      2 C2         -0.1582    0.3276    0.4618 C.3       1 <0>        -0.1222
      3 C3          0.6069   -0.1628    1.6927 C.3       1 <0>        -0.1341
      4 C4          0.5688   -1.6915    1.7412 C.3       1 <0>         0.1127
      5 N1          1.3014   -2.1611    2.9198 N.am      1 <0>        -0.6219
      6 C5          0.5997   -2.3475    4.1922 C.3       1 <0>         0.0761
      7 C6          2.6210   -2.4215    2.8335 C.2       1 <0>         0.5109
      8 O1          3.2019   -2.2671    1.7801 O.2       1 <0>        -0.5366
      9 C7          3.3746   -2.9045    4.0458 C.3       1 <0>        -0.1394
     10 C8          4.8439   -3.1228    3.6794 C.3       1 <0>        -0.1054
     11 C9          5.6091   -3.6132    4.9103 C.3       1 <0>        -0.1196
     12 C10         7.0784   -3.8316    4.5439 C.3       1 <0>        -0.1205
     13 C11         7.8435   -4.3219    5.7748 C.3       1 <0>        -0.1196
     14 C12         9.3129   -4.5403    5.4083 C.3       1 <0>        -0.1207
     15 C13        10.0780   -5.0306    6.6392 C.3       1 <0>        -0.1187
     16 C14        11.5473   -5.2490    6.2728 C.3       1 <0>        -0.1141
     17 C15        12.3124   -5.7394    7.5037 C.3       1 <0>        -0.1006
     18 C16        13.7818   -5.9577    7.1372 C.3       1 <0>        -0.0970
     19 S1         14.6889   -6.5391    8.5966 S.3       1 <0>        -0.2049
     20 C17        16.3901   -6.7468    8.0019 C.3       1 <0>        -0.1110
     21 H1         16.7425   -5.8169    7.5555 H         1 <0>         0.1299
     22 C18        17.3039   -7.1450    9.1659 C.3       1 <0>        -0.0418
     23 C19        18.7438   -7.2414    8.6790 C.3       1 <0>        -0.0458
     24 C20        19.2203   -5.8436    8.2688 C.3       1 <0>        -0.1104
     25 C21        19.1929   -4.9360    9.4960 C.3       1 <0>        -0.1112
     26 C22        17.7649   -4.7938   10.0279 C.3       1 <0>        -0.0426
     27 C23        17.1569   -6.1784   10.3159 C.3       1 <0>        -0.0764
     28 C24        17.8626   -6.6638   11.5892 C.3       1 <0>        -0.1148
     29 C25        18.3245   -5.3919   12.3287 C.3       1 <0>        -0.1552
     30 C26        17.8799   -4.1947   11.4604 C.3       1 <0>         0.1037
     31 H2         18.6304   -3.4045   11.4855 H         1 <0>         0.0587
     32 O2         16.6136   -3.6994   11.9000 O.3       1 <0>        -0.5555
     33 C27        16.8889   -3.9414    9.1076 C.3       1 <0>        -0.1310
     34 C28        18.8609   -8.1710    7.5014 C.ar      1 <0>        -0.0342
     35 C29        20.0860   -8.7489    7.2206 C.ar      1 <0>        -0.1117
     36 C30        20.2260   -9.6035    6.1443 C.ar      1 <0>        -0.1087
     37 C31        19.1387   -9.8938    5.3303 C.ar      1 <0>         0.0929
     38 C32        17.9061   -9.3245    5.5991 C.ar      1 <0>        -0.0855
     39 C33        17.7637   -8.4615    6.6887 C.ar      1 <0>        -0.1445
     40 C34        16.4454   -7.8627    6.9788 C.2       1 <0>         0.4008
     41 O3         15.4423   -8.2517    6.4196 O.2       1 <0>        -0.4282
     42 O4         19.2848  -10.7344    4.2723 O.3       1 <0>        -0.4951
     43 H3          0.9151    2.1923    0.3552 H         1 <0>         0.0541
     44 H4         -0.6653    2.2057   -0.4637 H         1 <0>         0.0555
     45 H5         -0.5833    2.2601    1.3136 H         1 <0>         0.0531
     46 H6         -1.1935   -0.0084    0.5199 H         1 <0>         0.0623
     47 H7          0.3048   -0.0762   -0.4385 H         1 <0>         0.0641
     48 H8          1.6422    0.1732    1.6346 H         1 <0>         0.0659
     49 H9          0.1438    0.2410    2.5930 H         1 <0>         0.0617
     50 H10        -0.4665   -2.0275    1.7993 H         1 <0>         0.0759
     51 H11         1.0319   -2.0953    0.8409 H         1 <0>         0.0837
     52 H12         0.2169   -3.3664    4.2501 H         1 <0>         0.0582
     53 H13         1.2901   -2.1714    5.0171 H         1 <0>         0.0736
     54 H14        -0.2299   -1.6435    4.2562 H         1 <0>         0.0726
     55 H15         3.3046   -2.1590    4.8380 H         1 <0>         0.0926
     56 H16         2.9429   -3.8437    4.3916 H         1 <0>         0.0925
     57 H17         4.9139   -3.8683    2.8873 H         1 <0>         0.0692
     58 H18         5.2756   -2.1836    3.3336 H         1 <0>         0.0690
     59 H19         5.5391   -2.8677    5.7024 H         1 <0>         0.0617
     60 H20         5.1774   -4.5524    5.2561 H         1 <0>         0.0619
     61 H21         7.1484   -4.5770    3.7517 H         1 <0>         0.0620
     62 H22         7.5101   -2.8923    4.1981 H         1 <0>         0.0619
     63 H23         7.7735   -3.5765    6.5669 H         1 <0>         0.0608
     64 H24         7.4118   -5.2612    6.1205 H         1 <0>         0.0608
     65 H25         9.3829   -5.2858    4.6162 H         1 <0>         0.0611
     66 H26         9.7445   -3.6010    5.0625 H         1 <0>         0.0610
     67 H27        10.0080   -4.2852    7.4313 H         1 <0>         0.0621
     68 H28         9.6463   -5.9699    6.9850 H         1 <0>         0.0621
     69 H29        11.6173   -5.9945    5.4807 H         1 <0>         0.0635
     70 H30        11.9790   -4.3098    5.9270 H         1 <0>         0.0626
     71 H31        12.2424   -4.9939    8.2958 H         1 <0>         0.0703
     72 H32        11.8808   -6.6786    7.8495 H         1 <0>         0.0708
     73 H33        13.8518   -6.7032    6.3451 H         1 <0>         0.0936
     74 H34        14.2135   -5.0185    6.7915 H         1 <0>         0.0757
     75 H35        17.0040   -8.1344    9.5113 H         1 <0>         0.0808
     76 H36        19.3735   -7.6144    9.4867 H         1 <0>         0.0992
     77 H37        20.2372   -5.9033    7.8811 H         1 <0>         0.0735
     78 H38        18.5576   -5.4419    7.5023 H         1 <0>         0.0669
     79 H39        19.8253   -5.3640   10.2738 H         1 <0>         0.0706
     80 H40        19.5748   -3.9520    9.2239 H         1 <0>         0.0686
     81 H41        16.0969   -6.0557   10.5384 H         1 <0>         0.0982
     82 H42        17.1684   -7.2287   12.2114 H         1 <0>         0.0671
     83 H43        18.7229   -7.2808   11.3299 H         1 <0>         0.0652
     84 H44        17.8527   -5.3378   13.3098 H         1 <0>         0.0702
     85 H45        19.4093   -5.3943   12.4347 H         1 <0>         0.0707
     86 H46        16.6281   -3.3148   12.7871 H         1 <0>         0.3754
     87 H47        16.9625   -4.3159    8.0866 H         1 <0>         0.0481
     88 H48        15.8524   -3.9950    9.4405 H         1 <0>         0.0770
     89 H49        17.2278   -2.9059    9.1401 H         1 <0>         0.0533
     90 H50        20.9385   -8.5303    7.8465 H         1 <0>         0.1359
     91 H51        21.1873  -10.0486    5.9342 H         1 <0>         0.1358
     92 H52        17.0575   -9.5465    4.9690 H         1 <0>         0.1398
     93 H53        19.1231  -11.6641    4.4834 H         1 <0>         0.3938
@<TRIPOS>BOND
     1    1    2 1
     2    1   43 1
     3    1   44 1
     4    1   45 1
     5    2    3 1
     6    2   46 1
     7    2   47 1
     8    3    4 1
     9    3   48 1
    10    3   49 1
    11    4    5 1
    12    4   50 1
    13    4   51 1
    14    5    6 1
    15    5    7 am
    16    6   52 1
    17    6   53 1
    18    6   54 1
    19    7    8 2
    20    7    9 1
    21    9   10 1
    22    9   55 1
    23    9   56 1
    24   10   11 1
    25   10   57 1
    26   10   58 1
    27   11   12 1
    28   11   59 1
    29   11   60 1
    30   12   13 1
    31   12   61 1
    32   12   62 1
    33   13   14 1
    34   13   63 1
    35   13   64 1
    36   14   15 1
    37   14   65 1
    38   14   66 1
    39   15   16 1
    40   15   67 1
    41   15   68 1
    42   16   17 1
    43   16   69 1
    44   16   70 1
    45   17   18 1
    46   17   71 1
    47   17   72 1
    48   18   19 1
    49   18   73 1
    50   18   74 1
    51   19   20 1
    52   20   21 1
    53   20   40 1
    54   20   22 1
    55   22   27 1
    56   22   23 1
    57   22   75 1
    58   23   24 1
    59   23   34 1
    60   23   76 1
    61   24   25 1
    62   24   77 1
    63   24   78 1
    64   25   26 1
    65   25   79 1
    66   25   80 1
    67   26   30 1
    68   26   27 1
    69   26   33 1
    70   27   28 1
    71   27   81 1
    72   28   29 1
    73   28   82 1
    74   28   83 1
    75   29   30 1
    76   29   84 1
    77   29   85 1
    78   30   31 1
    79   30   32 1
    80   32   86 1
    81   33   87 1
    82   33   88 1
    83   33   89 1
    84   34   39 ar
    85   34   35 ar
    86   35   36 ar
    87   35   90 1
    88   36   37 ar
    89   36   91 1
    90   37   38 ar
    91   37   42 1
    92   38   39 ar
    93   38   92 1
    94   39   40 1
    95   40   41 2
    96   42   93 1
@<TRIPOS>MOLECULE
CHEMBL290490__5
   93    96     0     0     0
SMALL
USER_CHARGES

@<TRIPOS>ATOM
      1 C1         -0.0814    1.7028    0.2419 C.3       1 <0>        -0.1525
      2 C2         -0.0856    0.1729    0.2516 C.3       1 <0>        -0.1222
      3 C3          0.6673   -0.3314    1.4844 C.3       1 <0>        -0.1341
      4 C4          0.6632   -1.8614    1.4941 C.3       1 <0>         0.1127
      5 N1          1.3840   -2.3442    2.6745 N.am      1 <0>        -0.6218
      6 C5          0.6629   -2.5785    3.9281 C.3       1 <0>         0.0761
      7 C6          2.7105   -2.5728    2.6073 C.2       1 <0>         0.5108
      8 O1          3.3075   -2.3788    1.5695 O.2       1 <0>        -0.5366
      9 C7          3.4521   -3.0695    3.8216 C.3       1 <0>        -0.1393
     10 C8          4.9326   -3.2456    3.4783 C.3       1 <0>        -0.1054
     11 C9          5.6855   -3.7499    4.7112 C.3       1 <0>        -0.1195
     12 C10         7.1660   -3.9261    4.3679 C.3       1 <0>        -0.1206
     13 C11         7.9188   -4.4303    5.6008 C.3       1 <0>        -0.1196
     14 C12         9.3994   -4.6065    5.2575 C.3       1 <0>        -0.1209
     15 C13        10.1522   -5.1107    6.4904 C.3       1 <0>        -0.1185
     16 C14        11.6328   -5.2869    6.1471 C.3       1 <0>        -0.1142
     17 C15        12.3856   -5.7911    7.3800 C.3       1 <0>        -0.0997
     18 C16        13.8662   -5.9673    7.0367 C.3       1 <0>        -0.1063
     19 S1         14.7588   -6.5651    8.4984 S.3       1 <0>        -0.2040
     20 C17        16.4785   -6.7199    7.9306 C.3       1 <0>        -0.0934
     21 H1         16.8147   -5.7706    7.5154 H         1 <0>         0.1237
     22 C18        17.3816   -7.1980    9.0524 C.3       1 <0>        -0.0335
     23 C19        18.8207   -7.4031    8.5690 C.3       1 <0>        -0.0456
     24 C20        19.5505   -6.0775    8.3766 C.3       1 <0>        -0.1089
     25 C21        19.5959   -5.2885    9.6925 C.3       1 <0>        -0.1032
     26 C22        18.1774   -5.0279   10.1488 C.3       1 <0>        -0.0509
     27 C23        17.4209   -6.3629   10.2920 C.3       1 <0>        -0.0770
     28 C24        16.1249   -5.9065   10.9649 C.3       1 <0>        -0.1193
     29 C25        16.6730   -4.9610   12.0781 C.3       1 <0>        -0.1586
     30 C26        18.0530   -4.4649   11.5784 C.3       1 <0>         0.1051
     31 H2         18.8529   -4.8593   12.1977 H         1 <0>         0.0579
     32 O2         18.0896   -3.0394   11.5384 O.3       1 <0>        -0.5572
     33 C27        17.4885   -4.0422    9.2080 C.3       1 <0>        -0.1324
     34 C28        18.8966   -8.2159    7.3094 C.ar      1 <0>        -0.0309
     35 C29        20.1037   -8.7997    6.9620 C.ar      1 <0>        -0.1129
     36 C30        20.2101   -9.5612    5.8151 C.ar      1 <0>        -0.1069
     37 C31        19.1059   -9.7546    4.9950 C.ar      1 <0>         0.0928
     38 C32        17.8932   -9.1769    5.3269 C.ar      1 <0>        -0.0848
     39 C33        17.7885   -8.3984    6.4842 C.ar      1 <0>        -0.1439
     40 C34        16.5086   -7.7502    6.8110 C.2       1 <0>         0.3969
     41 O3         15.4920   -8.0265    6.2064 O.2       1 <0>        -0.4310
     42 O4         19.2171  -10.5075    3.8692 O.3       1 <0>        -0.4947
     43 H3          0.9468    2.0632    0.2123 H         1 <0>         0.0541
     44 H4         -0.6178    2.0621   -0.6364 H         1 <0>         0.0555
     45 H5         -0.5704    2.0732    1.1429 H         1 <0>         0.0531
     46 H6         -1.1138   -0.1875    0.2812 H         1 <0>         0.0623
     47 H7          0.4035   -0.1975   -0.6494 H         1 <0>         0.0641
     48 H8          1.6956    0.0290    1.4548 H         1 <0>         0.0659
     49 H9          0.1783    0.0390    2.3854 H         1 <0>         0.0617
     50 H10        -0.3651   -2.2217    1.5237 H         1 <0>         0.0759
     51 H11         1.1522   -2.2317    0.5931 H         1 <0>         0.0837
     52 H12         0.3024   -3.6068    3.9531 H         1 <0>         0.0582
     53 H13         1.3335   -2.4080    4.7703 H         1 <0>         0.0736
     54 H14        -0.1836   -1.8950    3.9935 H         1 <0>         0.0726
     55 H15         3.3502   -2.3461    4.6306 H         1 <0>         0.0925
     56 H16         3.0355   -4.0266    4.1354 H         1 <0>         0.0925
     57 H17         5.0345   -3.9690    2.6694 H         1 <0>         0.0692
     58 H18         5.3492   -2.2885    3.1645 H         1 <0>         0.0690
     59 H19         5.5836   -3.0265    5.5202 H         1 <0>         0.0616
     60 H20         5.2689   -4.7070    5.0250 H         1 <0>         0.0618
     61 H21         7.2679   -4.6494    3.5590 H         1 <0>         0.0621
     62 H22         7.5826   -2.9689    4.0541 H         1 <0>         0.0619
     63 H23         7.8170   -3.7069    6.4098 H         1 <0>         0.0606
     64 H24         7.5023   -5.3874    5.9146 H         1 <0>         0.0607
     65 H25         9.5013   -5.3298    4.4485 H         1 <0>         0.0612
     66 H26         9.8160   -3.6494    4.9437 H         1 <0>         0.0610
     67 H27        10.0504   -4.3873    7.2994 H         1 <0>         0.0617
     68 H28         9.7357   -6.0678    6.8042 H         1 <0>         0.0619
     69 H29        11.7347   -6.0103    5.3381 H         1 <0>         0.0636
     70 H30        12.0494   -4.3298    5.8333 H         1 <0>         0.0623
     71 H31        12.2838   -5.0678    8.1889 H         1 <0>         0.0683
     72 H32        11.9690   -6.7482    7.6938 H         1 <0>         0.0699
     73 H33        13.9681   -6.6907    6.2277 H         1 <0>         0.1015
     74 H34        14.2828   -5.0102    6.7229 H         1 <0>         0.0741
     75 H35        17.0118   -8.2072    9.3532 H         1 <0>         0.0800
     76 H36        19.3524   -7.9589    9.3554 H         1 <0>         0.0934
     77 H37        20.5762   -6.2872    8.0598 H         1 <0>         0.0696
     78 H38        19.0607   -5.4977    7.6021 H         1 <0>         0.0681
     79 H39        20.1274   -5.8691   10.4508 H         1 <0>         0.0651
     80 H40        20.1165   -4.3411    9.5366 H         1 <0>         0.0726
     81 H41        17.9710   -6.9659   11.0626 H         1 <0>         0.0725
     82 H42        15.4754   -5.3492   10.3009 H         1 <0>         0.1021
     83 H43        15.6006   -6.7507   11.4128 H         1 <0>         0.0663
     84 H44        15.9962   -4.1206   12.2168 H         1 <0>         0.0742
     85 H45        16.7880   -5.5161   13.0079 H         1 <0>         0.0647
     86 H46        18.0159   -2.6196   12.4064 H         1 <0>         0.3747
     87 H47        17.5686   -4.4023    8.1823 H         1 <0>         0.0447
     88 H48        16.4369   -3.9538    9.4810 H         1 <0>         0.0636
     89 H49        17.9681   -3.0667    9.2891 H         1 <0>         0.0674
     90 H50        20.9674   -8.6567    7.5944 H         1 <0>         0.1362
     91 H51        21.1577  -10.0086    5.5533 H         1 <0>         0.1364
     92 H52        17.0312   -9.3254    4.6938 H         1 <0>         0.1404
     93 H53        19.0330  -11.4471    4.0047 H         1 <0>         0.3939
@<TRIPOS>BOND
     1    1    2 1
     2    1   43 1
     3    1   44 1
     4    1   45 1
     5    2    3 1
     6    2   46 1
     7    2   47 1
     8    3    4 1
     9    3   48 1
    10    3   49 1
    11    4    5 1
    12    4   50 1
    13    4   51 1
    14    5    6 1
    15    5    7 am
    16    6   52 1
    17    6   53 1
    18    6   54 1
    19    7    8 2
    20    7    9 1
    21    9   10 1
    22    9   55 1
    23    9   56 1
    24   10   11 1
    25   10   57 1
    26   10   58 1
    27   11   12 1
    28   11   59 1
    29   11   60 1
    30   12   13 1
    31   12   61 1
    32   12   62 1
    33   13   14 1
    34   13   63 1
    35   13   64 1
    36   14   15 1
    37   14   65 1
    38   14   66 1
    39   15   16 1
    40   15   67 1
    41   15   68 1
    42   16   17 1
    43   16   69 1
    44   16   70 1
    45   17   18 1
    46   17   71 1
    47   17   72 1
    48   18   19 1
    49   18   73 1
    50   18   74 1
    51   19   20 1
    52   20   21 1
    53   20   40 1
    54   20   22 1
    55   22   27 1
    56   22   23 1
    57   22   75 1
    58   23   24 1
    59   23   34 1
    60   23   76 1
    61   24   25 1
    62   24   77 1
    63   24   78 1
    64   25   26 1
    65   25   79 1
    66   25   80 1
    67   26   30 1
    68   26   27 1
    69   26   33 1
    70   27   28 1
    71   27   81 1
    72   28   29 1
    73   28   82 1
    74   28   83 1
    75   29   30 1
    76   29   84 1
    77   29   85 1
    78   30   31 1
    79   30   32 1
    80   32   86 1
    81   33   87 1
    82   33   88 1
    83   33   89 1
    84   34   39 ar
    85   34   35 ar
    86   35   36 ar
    87   35   90 1
    88   36   37 ar
    89   36   91 1
    90   37   38 ar
    91   37   42 1
    92   38   39 ar
    93   38   92 1
    94   39   40 1
    95   40   41 2
    96   42   93 1
@<TRIPOS>MOLECULE
CHEMBL290490__6
   93    96     0     0     0
SMALL
USER_CHARGES

@<TRIPOS>ATOM
      1 C1         -0.0187    1.5258    0.0104 C.3       1 <0>        -0.1525
      2 C2          0.0021   -0.0041    0.0020 C.3       1 <0>        -0.1222
      3 C3          0.7421   -0.5109    1.2415 C.3       1 <0>        -0.1341
      4 C4          0.7628   -2.0407    1.2331 C.3       1 <0>         0.1127
      5 N1          1.4714   -2.5260    2.4200 N.am      1 <0>        -0.6218
      6 C5          0.7331   -2.7871    3.6582 C.3       1 <0>         0.0761
      7 C6          2.8024   -2.7324    2.3728 C.2       1 <0>         0.5109
      8 O1          3.4136   -2.5163    1.3478 O.2       1 <0>        -0.5366
      9 C7          3.5313   -3.2316    3.5937 C.3       1 <0>        -0.1394
     10 C8          5.0201   -3.3797    3.2738 C.3       1 <0>        -0.1054
     11 C9          5.7601   -3.8865    4.5134 C.3       1 <0>        -0.1196
     12 C10         7.2490   -4.0346    4.1935 C.3       1 <0>        -0.1206
     13 C11         7.9890   -4.5414    5.4330 C.3       1 <0>        -0.1195
     14 C12         9.4778   -4.6895    5.1132 C.3       1 <0>        -0.1208
     15 C13        10.2178   -5.1963    6.3527 C.3       1 <0>        -0.1187
     16 C14        11.7066   -5.3444    6.0328 C.3       1 <0>        -0.1149
     17 C15        12.4466   -5.8512    7.2723 C.3       1 <0>        -0.0973
     18 C16        13.9355   -5.9993    6.9525 C.3       1 <0>        -0.1416
     19 S1         14.8128   -6.6002    8.4221 S.3       1 <0>        -0.1699
     20 C17        16.5408   -6.7201    7.8832 C.3       1 <0>        -0.1102
     21 H1         16.8718   -5.7613    7.4840 H         1 <0>         0.1233
     22 C18        17.4282   -7.1273    9.0646 C.3       1 <0>        -0.0507
     23 C19        18.8857   -7.1533    8.6238 C.3       1 <0>        -0.0473
     24 C20        19.7416   -7.6562    9.7907 C.3       1 <0>        -0.1131
     25 C21        19.6238   -6.6497   10.9361 C.3       1 <0>        -0.1073
     26 C22        18.1889   -6.4818   11.3797 C.3       1 <0>        -0.0482
     27 C23        17.2300   -6.1468   10.2220 C.3       1 <0>        -0.0731
     28 C24        15.8455   -6.4753   10.8541 C.3       1 <0>        -0.1181
     29 C25        16.1089   -7.7524   11.6815 C.3       1 <0>        -0.1591
     30 C26        17.6148   -7.7562   12.0129 C.3       1 <0>         0.1082
     31 H2         18.0918   -8.6369   11.5830 H         1 <0>         0.0583
     32 O2         17.8074   -7.7324   13.4287 O.3       1 <0>        -0.5595
     33 C27        18.1140   -5.3447   12.4006 C.3       1 <0>        -0.1315
     34 C28        19.0823   -8.0339    7.4224 C.ar      1 <0>        -0.0332
     35 C29        20.3368   -8.5570    7.1656 C.ar      1 <0>        -0.1146
     36 C30        20.5466   -9.3650    6.0649 C.ar      1 <0>        -0.1079
     37 C31        19.5002   -9.6636    5.2019 C.ar      1 <0>         0.0921
     38 C32        18.2383   -9.1500    5.4458 C.ar      1 <0>        -0.0849
     39 C33        18.0255   -8.3338    6.5597 C.ar      1 <0>        -0.1468
     40 C34        16.6766   -7.7941    6.8231 C.2       1 <0>         0.4023
     41 O3         15.7096   -8.1980    6.2131 O.2       1 <0>        -0.4272
     42 O4         19.7149  -10.4580    4.1201 O.3       1 <0>        -0.4950
     43 H3          1.0039    1.9031    0.0027 H         1 <0>         0.0541
     44 H4         -0.5459    1.8868   -0.8726 H         1 <0>         0.0555
     45 H5         -0.5289    1.8773    0.9072 H         1 <0>         0.0531
     46 H6         -1.0205   -0.3814    0.0098 H         1 <0>         0.0623
     47 H7          0.5123   -0.3556   -0.8948 H         1 <0>         0.0641
     48 H8          1.7647   -0.1336    1.2338 H         1 <0>         0.0659
     49 H9          0.2319   -0.1594    2.1383 H         1 <0>         0.0617
     50 H10        -0.2598   -2.4180    1.2409 H         1 <0>         0.0759
     51 H11         1.2730   -2.3923    0.3363 H         1 <0>         0.0837
     52 H12         0.3891   -3.8213    3.6649 H         1 <0>         0.0582
     53 H13         1.3865   -2.6159    4.5137 H         1 <0>         0.0736
     54 H14        -0.1255   -2.1182    3.7171 H         1 <0>         0.0726
     55 H15         3.4039   -2.5198    4.4093 H         1 <0>         0.0925
     56 H16         3.1251   -4.1990    3.8891 H         1 <0>         0.0925
     57 H17         5.1475   -4.0915    2.4583 H         1 <0>         0.0692
     58 H18         5.4263   -2.4122    2.9785 H         1 <0>         0.0690
     59 H19         5.6328   -3.1747    5.3289 H         1 <0>         0.0616
     60 H20         5.3540   -4.8539    4.8087 H         1 <0>         0.0618
     61 H21         7.3763   -4.7464    3.3779 H         1 <0>         0.0620
     62 H22         7.6551   -3.0671    3.8981 H         1 <0>         0.0619
     63 H23         7.8616   -3.8296    6.2486 H         1 <0>         0.0606
     64 H24         7.5828   -5.5088    5.7284 H         1 <0>         0.0606
     65 H25         9.6052   -5.4013    4.2976 H         1 <0>         0.0610
     66 H26         9.8839   -3.7220    4.8178 H         1 <0>         0.0608
     67 H27        10.0904   -4.4845    7.1683 H         1 <0>         0.0614
     68 H28         9.8117   -6.1637    6.6480 H         1 <0>         0.0614
     69 H29        11.8340   -6.0562    5.2172 H         1 <0>         0.0624
     70 H30        12.1128   -4.3769    5.7375 H         1 <0>         0.0615
     71 H31        12.3193   -5.1394    8.0879 H         1 <0>         0.0666
     72 H32        12.0405   -6.8186    7.5677 H         1 <0>         0.0673
     73 H33        14.0628   -6.7111    6.1369 H         1 <0>         0.0891
     74 H34        14.3416   -5.0318    6.6571 H         1 <0>         0.0725
     75 H35        17.1509   -8.1292    9.3923 H         1 <0>         0.0871
     76 H36        19.1967   -6.1408    8.3663 H         1 <0>         0.0969
     77 H37        19.3802   -8.6309   10.1188 H         1 <0>         0.0696
     78 H38        20.7822   -7.7358    9.4763 H         1 <0>         0.0769
     79 H39        20.2191   -6.9987   11.7798 H         1 <0>         0.0719
     80 H40        20.0093   -5.6856   10.6042 H         1 <0>         0.0699
     81 H41        17.3160   -5.1087    9.9009 H         1 <0>         0.0963
     82 H42        15.5175   -5.6615   11.5008 H         1 <0>         0.0768
     83 H43        15.1064   -6.6689   10.0767 H         1 <0>         0.0989
     84 H44        15.5238   -7.7294   12.6009 H         1 <0>         0.0748
     85 H45        15.8526   -8.6360   11.0969 H         1 <0>         0.0673
     86 H46        17.4647   -8.5128   13.8854 H         1 <0>         0.3759
     87 H47        18.4561   -4.4186   11.9386 H         1 <0>         0.0497
     88 H48        17.0838   -5.2245   12.7357 H         1 <0>         0.0580
     89 H49        18.7487   -5.5808   13.2546 H         1 <0>         0.0639
     90 H50        21.1580   -8.3318    7.8299 H         1 <0>         0.1389
     91 H51        21.5306   -9.7673    5.8745 H         1 <0>         0.1360
     92 H52        17.4213   -9.3792    4.7777 H         1 <0>         0.1398
     93 H53        19.5810  -11.4002    4.2913 H         1 <0>         0.3936
@<TRIPOS>BOND
     1    1    2 1
     2    1   43 1
     3    1   44 1
     4    1   45 1
     5    2    3 1
     6    2   46 1
     7    2   47 1
     8    3    4 1
     9    3   48 1
    10    3   49 1
    11    4    5 1
    12    4   50 1
    13    4   51 1
    14    5    6 1
    15    5    7 am
    16    6   52 1
    17    6   53 1
    18    6   54 1
    19    7    8 2
    20    7    9 1
    21    9   10 1
    22    9   55 1
    23    9   56 1
    24   10   11 1
    25   10   57 1
    26   10   58 1
    27   11   12 1
    28   11   59 1
    29   11   60 1
    30   12   13 1
    31   12   61 1
    32   12   62 1
    33   13   14 1
    34   13   63 1
    35   13   64 1
    36   14   15 1
    37   14   65 1
    38   14   66 1
    39   15   16 1
    40   15   67 1
    41   15   68 1
    42   16   17 1
    43   16   69 1
    44   16   70 1
    45   17   18 1
    46   17   71 1
    47   17   72 1
    48   18   19 1
    49   18   73 1
    50   18   74 1
    51   19   20 1
    52   20   21 1
    53   20   40 1
    54   20   22 1
    55   22   27 1
    56   22   23 1
    57   22   75 1
    58   23   24 1
    59   23   34 1
    60   23   76 1
    61   24   25 1
    62   24   77 1
    63   24   78 1
    64   25   26 1
    65   25   79 1
    66   25   80 1
    67   26   30 1
    68   26   27 1
    69   26   33 1
    70   27   28 1
    71   27   81 1
    72   28   29 1
    73   28   82 1
    74   28   83 1
    75   29   30 1
    76   29   84 1
    77   29   85 1
    78   30   31 1
    79   30   32 1
    80   32   86 1
    81   33   87 1
    82   33   88 1
    83   33   89 1
    84   34   39 ar
    85   34   35 ar
    86   35   36 ar
    87   35   90 1
    88   36   37 ar
    89   36   91 1
    90   37   38 ar
    91   37   42 1
    92   38   39 ar
    93   38   92 1
    94   39   40 1
    95   40   41 2
    96   42   93 1
@<TRIPOS>MOLECULE
CHEMBL290490__7
   93    96     0     0     0
SMALL
USER_CHARGES

@<TRIPOS>ATOM
      1 C1         -0.0974    2.1599    0.6103 C.3       1 <0>        -0.1525
      2 C2         -0.1213    0.6303    0.5880 C.3       1 <0>        -0.1222
      3 C3          0.6385    0.0906    1.8014 C.3       1 <0>        -0.1341
      4 C4          0.6147   -1.4391    1.7790 C.3       1 <0>         0.1127
      5 N1          1.3421   -1.9558    2.9409 N.am      1 <0>        -0.6218
      6 C5          0.6320   -2.2073    4.1973 C.3       1 <0>         0.0761
      7 C6          2.6648   -2.1999    2.8539 C.2       1 <0>         0.5109
      8 O1          3.2527   -1.9917    1.8138 O.2       1 <0>        -0.5365
      9 C7          3.4131   -2.7314    4.0491 C.3       1 <0>        -0.1394
     10 C8          4.8874   -2.9192    3.6855 C.3       1 <0>        -0.1055
     11 C9          5.6472   -3.4589    4.8989 C.3       1 <0>        -0.1196
     12 C10         7.1215   -3.6466    4.5354 C.3       1 <0>        -0.1206
     13 C11         7.8812   -4.1863    5.7488 C.3       1 <0>        -0.1195
     14 C12         9.3555   -4.3740    5.3853 C.3       1 <0>        -0.1209
     15 C13        10.1153   -4.9137    6.5987 C.3       1 <0>        -0.1186
     16 C14        11.5896   -5.1014    6.2352 C.3       1 <0>        -0.1141
     17 C15        12.3493   -5.6411    7.4486 C.3       1 <0>        -0.1006
     18 C16        13.8236   -5.8288    7.0850 C.3       1 <0>        -0.1023
     19 S1         14.7244   -6.4687    8.5237 S.3       1 <0>        -0.2093
     20 C17        16.4359   -6.6334    7.9333 C.3       1 <0>        -0.0924
     21 H1         16.7803   -5.6800    7.5341 H         1 <0>         0.1212
     22 C18        17.3465   -7.0963    9.0661 C.3       1 <0>        -0.0368
     23 C19        18.7681   -7.2891    8.5419 C.3       1 <0>        -0.0464
     24 C20        19.7398   -7.6121    9.6627 C.3       1 <0>        -0.1060
     25 C21        19.7821   -6.5195   10.7390 C.3       1 <0>        -0.1019
     26 C22        18.6637   -5.5271   10.5591 C.3       1 <0>        -0.0488
     27 C23        17.3236   -6.2479   10.2967 C.3       1 <0>        -0.0757
     28 C24        16.3291   -5.0826   10.3697 C.3       1 <0>        -0.1040
     29 C25        16.8722   -4.2222   11.5464 C.3       1 <0>        -0.1603
     30 C26        18.3014   -4.7411   11.8414 C.3       1 <0>         0.1017
     31 H2         18.3085   -5.4070   12.6946 H         1 <0>         0.0606
     32 O2         19.2091   -3.6562   12.0103 O.3       1 <0>        -0.5569
     33 C27        18.9995   -4.4819    9.4982 C.3       1 <0>        -0.1396
     34 C28        18.7743   -8.3686    7.4886 C.ar      1 <0>        -0.0352
     35 C29        19.8807   -9.1720    7.3163 C.ar      1 <0>        -0.1158
     36 C30        19.8816  -10.1584    6.3459 C.ar      1 <0>        -0.1051
     37 C31        18.7686  -10.3471    5.5372 C.ar      1 <0>         0.0894
     38 C32        17.6526   -9.5448    5.6984 C.ar      1 <0>        -0.0805
     39 C33        17.6505   -8.5454    6.6767 C.ar      1 <0>        -0.1483
     40 C34        16.4645   -7.6889    6.8421 C.2       1 <0>         0.4025
     41 O3         15.5032   -7.8245    6.1072 O.2       1 <0>        -0.4387
     42 O4         18.7751  -11.3199    4.5877 O.3       1 <0>        -0.4950
     43 H3          0.9351    2.5077    0.5767 H         1 <0>         0.0541
     44 H4         -0.6387    2.5444   -0.2542 H         1 <0>         0.0555
     45 H5         -0.5716    2.5174    1.5243 H         1 <0>         0.0531
     46 H6         -1.1537    0.2825    0.6216 H         1 <0>         0.0623
     47 H7          0.3529    0.2728   -0.3261 H         1 <0>         0.0641
     48 H8          1.6710    0.4384    1.7677 H         1 <0>         0.0659
     49 H9          0.1643    0.4480    2.7154 H         1 <0>         0.0617
     50 H10        -0.4178   -1.7869    1.8127 H         1 <0>         0.0759
     51 H11         1.0889   -1.7965    0.8650 H         1 <0>         0.0837
     52 H12         0.2584   -3.2313    4.2048 H         1 <0>         0.0582
     53 H13         1.3139   -2.0632    5.0353 H         1 <0>         0.0736
     54 H14        -0.2049   -1.5146    4.2866 H         1 <0>         0.0726
     55 H15         3.3296   -2.0241    4.8741 H         1 <0>         0.0925
     56 H16         2.9876   -3.6896    4.3475 H         1 <0>         0.0925
     57 H17         4.9709   -3.6265    2.8605 H         1 <0>         0.0692
     58 H18         5.3129   -1.9610    3.3871 H         1 <0>         0.0690
     59 H19         5.5636   -2.7515    5.7240 H         1 <0>         0.0616
     60 H20         5.2217   -4.4170    5.1973 H         1 <0>         0.0618
     61 H21         7.2050   -4.3540    3.7103 H         1 <0>         0.0621
     62 H22         7.5469   -2.6884    4.2370 H         1 <0>         0.0619
     63 H23         7.7977   -3.4789    6.5739 H         1 <0>         0.0606
     64 H24         7.4557   -5.1444    6.0472 H         1 <0>         0.0607
     65 H25         9.4391   -5.0814    4.5602 H         1 <0>         0.0614
     66 H26         9.7810   -3.4158    5.0869 H         1 <0>         0.0611
     67 H27        10.0317   -4.2063    7.4238 H         1 <0>         0.0617
     68 H28         9.6898   -5.8718    6.8971 H         1 <0>         0.0619
     69 H29        11.6731   -5.8088    5.4101 H         1 <0>         0.0640
     70 H30        12.0150   -4.1433    5.9368 H         1 <0>         0.0627
     71 H31        12.2658   -4.9337    8.2736 H         1 <0>         0.0686
     72 H32        11.9238   -6.5992    7.7470 H         1 <0>         0.0697
     73 H33        13.9072   -6.5362    6.2600 H         1 <0>         0.1028
     74 H34        14.2491   -4.8707    6.7866 H         1 <0>         0.0756
     75 H35        16.9843   -8.1069    9.3633 H         1 <0>         0.0786
     76 H36        19.0914   -6.3938    8.0211 H         1 <0>         0.0996
     77 H37        19.4560   -8.5660   10.1233 H         1 <0>         0.0679
     78 H38        20.7471   -7.7340    9.2426 H         1 <0>         0.0717
     79 H39        19.7038   -6.9830   11.7326 H         1 <0>         0.0641
     80 H40        20.7478   -5.9979   10.6949 H         1 <0>         0.0694
     81 H41        17.1149   -6.9116   11.1652 H         1 <0>         0.0768
     82 H42        16.3025   -4.5127    9.4473 H         1 <0>         0.0743
     83 H43        15.3308   -5.4504   10.6258 H         1 <0>         0.0812
     84 H44        16.9044   -3.1728   11.2574 H         1 <0>         0.0734
     85 H45        16.2387   -4.3509   12.4234 H         1 <0>         0.0645
     86 H46        19.0392   -3.1202   12.7971 H         1 <0>         0.3752
     87 H47        19.3024   -4.9822    8.5784 H         1 <0>         0.0526
     88 H48        18.1215   -3.8657    9.3045 H         1 <0>         0.0580
     89 H49        19.8144   -3.8516    9.8543 H         1 <0>         0.0704
     90 H50        20.7564   -9.0382    7.9329 H         1 <0>         0.1396
     91 H51        20.7535  -10.7817    6.2166 H         1 <0>         0.1365
     92 H52        16.7856   -9.6908    5.0716 H         1 <0>         0.1406
     93 H53        18.4486  -12.1753    4.8988 H         1 <0>         0.3933
@<TRIPOS>BOND
     1    1    2 1
     2    1   43 1
     3    1   44 1
     4    1   45 1
     5    2    3 1
     6    2   46 1
     7    2   47 1
     8    3    4 1
     9    3   48 1
    10    3   49 1
    11    4    5 1
    12    4   50 1
    13    4   51 1
    14    5    6 1
    15    5    7 am
    16    6   52 1
    17    6   53 1
    18    6   54 1
    19    7    8 2
    20    7    9 1
    21    9   10 1
    22    9   55 1
    23    9   56 1
    24   10   11 1
    25   10   57 1
    26   10   58 1
    27   11   12 1
    28   11   59 1
    29   11   60 1
    30   12   13 1
    31   12   61 1
    32   12   62 1
    33   13   14 1
    34   13   63 1
    35   13   64 1
    36   14   15 1
    37   14   65 1
    38   14   66 1
    39   15   16 1
    40   15   67 1
    41   15   68 1
    42   16   17 1
    43   16   69 1
    44   16   70 1
    45   17   18 1
    46   17   71 1
    47   17   72 1
    48   18   19 1
    49   18   73 1
    50   18   74 1
    51   19   20 1
    52   20   21 1
    53   20   40 1
    54   20   22 1
    55   22   27 1
    56   22   23 1
    57   22   75 1
    58   23   24 1
    59   23   34 1
    60   23   76 1
    61   24   25 1
    62   24   77 1
    63   24   78 1
    64   25   26 1
    65   25   79 1
    66   25   80 1
    67   26   30 1
    68   26   27 1
    69   26   33 1
    70   27   28 1
    71   27   81 1
    72   28   29 1
    73   28   82 1
    74   28   83 1
    75   29   30 1
    76   29   84 1
    77   29   85 1
    78   30   31 1
    79   30   32 1
    80   32   86 1
    81   33   87 1
    82   33   88 1
    83   33   89 1
    84   34   39 ar
    85   34   35 ar
    86   35   36 ar
    87   35   90 1
    88   36   37 ar
    89   36   91 1
    90   37   38 ar
    91   37   42 1
    92   38   39 ar
    93   38   92 1
    94   39   40 1
    95   40   41 2
    96   42   93 1
@<TRIPOS>MOLECULE
CHEMBL193518
   41    44     0     0     0
SMALL
USER_CHARGES

@<TRIPOS>ATOM
      1 C1          7.4274   -1.8862   -2.4385 C.ar      1 <0>        -0.1161
      2 C2          6.3848   -2.7825   -2.2947 C.ar      1 <0>        -0.1165
      3 C3          5.2748   -2.4374   -1.5466 C.ar      1 <0>        -0.1057
      4 C4          5.2076   -1.1962   -0.9419 C.ar      1 <0>        -0.0836
      5 C5          6.2505   -0.3003   -1.0848 C.ar      1 <0>        -0.1127
      6 C6          7.3599   -0.6448   -1.8341 C.ar      1 <0>        -0.1172
      7 C7          3.9970   -0.8196   -0.1271 C.3       1 <0>        -0.0563
      8 C8          4.2533   -1.1283    1.3255 C.2       1 <0>         0.0454
      9 C9          4.9094   -0.1905    2.1647 C.ar      1 <0>        -0.1483
     10 C10         5.1534    1.1161    1.7167 C.ar      1 <0>        -0.0417
     11 C11         5.7489    2.0189    2.5475 C.ar      1 <0>        -0.1622
     12 C12         6.1253    1.6518    3.8384 C.ar      1 <0>         0.1682
     13 C13         5.9098    0.3604    4.2923 C.ar      1 <0>        -0.1617
     14 C14         5.3116   -0.5711    3.4588 C.ar      1 <0>         0.1587
     15 O1          5.1318   -1.8487    3.8743 O.3       1 <0>        -0.2725
     16 C15         4.1137   -2.5357    3.3061 C.2       1 <0>         0.5193
     17 O2          3.4316   -3.3034    3.9596 O.2       1 <0>        -0.4279
     18 C16         3.8532   -2.3220    1.8734 C.2       1 <0>        -0.1759
     19 C17         3.1875   -3.3594    1.0512 C.ar      1 <0>        -0.0210
     20 C18         1.9159   -3.1278    0.5275 C.ar      1 <0>        -0.0907
     21 C19         1.3008   -4.0970   -0.2379 C.ar      1 <0>        -0.1067
     22 C20         1.9435   -5.2980   -0.4859 C.ar      1 <0>        -0.0288
     23 C21         3.2058   -5.5334    0.0320 C.ar      1 <0>        -0.1055
     24 C22         3.8327   -4.5686    0.7934 C.ar      1 <0>        -0.0844
     25 Cl1         1.1635   -6.5135   -1.4493 Cl        1 <0>        -0.0645
     26 O3          6.7073    2.5655    4.6564 O.3       1 <0>        -0.4900
     27 H1          8.2966   -2.1576   -3.0192 H         1 <0>         0.1229
     28 H2          6.4374   -3.7523   -2.7672 H         1 <0>         0.1235
     29 H3          4.4600   -3.1374   -1.4349 H         1 <0>         0.1219
     30 H4          6.1978    0.6696   -0.6126 H         1 <0>         0.1214
     31 H5          8.1746    0.0553   -1.9461 H         1 <0>         0.1237
     32 H6          3.7985    0.2459   -0.2426 H         1 <0>         0.0968
     33 H7          3.1346   -1.3895   -0.4730 H         1 <0>         0.1003
     34 H8          4.8700    1.4067    0.7159 H         1 <0>         0.1454
     35 H9          5.9305    3.0261    2.2025 H         1 <0>         0.1438
     36 H10         6.2065    0.0811    5.2924 H         1 <0>         0.1517
     37 H11         1.4134   -2.1916    0.7210 H         1 <0>         0.1355
     38 H12         0.3161   -3.9187   -0.6439 H         1 <0>         0.1390
     39 H13         3.7024   -6.4722   -0.1640 H         1 <0>         0.1385
     40 H14         4.8193   -4.7513    1.1929 H         1 <0>         0.1317
     41 H15         6.0800    3.0687    5.1933 H         1 <0>         0.4023
@<TRIPOS>BOND
     1    1    6 ar
     2    1    2 ar
     3    1   27 1
     4    2    3 ar
     5    2   28 1
     6    3    4 ar
     7    3   29 1
     8    4    5 ar
     9    4    7 1
    10    5    6 ar
    11    5   30 1
    12    6   31 1
    13    7    8 1
    14    7   32 1
    15    7   33 1
    16    8   18 2
    17    8    9 1
    18    9   14 ar
    19    9   10 ar
    20   10   11 ar
    21   10   34 1
    22   11   12 ar
    23   11   35 1
    24   12   13 ar
    25   12   26 1
    26   13   14 ar
    27   13   36 1
    28   14   15 1
    29   15   16 1
    30   16   17 2
    31   16   18 1
    32   18   19 1
    33   19   24 ar
    34   19   20 ar
    35   20   21 ar
    36   20   37 1
    37   21   22 ar
    38   21   38 1
    39   22   23 ar
    40   22   25 1
    41   23   24 ar
    42   23   39 1
    43   24   40 1
    44   26   41 1
@<TRIPOS>MOLECULE
CHEMBL6318
   62    65     0     0     0
SMALL
USER_CHARGES

@<TRIPOS>ATOM
      1 C1          0.8256   -1.1884    0.5458 C.3       1 <0>        -0.1468
      2 C2          0.0043   -0.0156    0.0066 C.3       1 <0>        -0.0949
      3 C3         -1.4368   -0.4337   -0.1331 C.2       1 <0>        -0.0345
      4 C4         -1.8944   -0.9031   -1.3199 C.2       1 <0>        -0.0615
      5 C5         -3.2676   -1.4439   -1.4214 C.ar      1 <0>        -0.0485
      6 C6         -3.6189   -2.5980   -0.7189 C.ar      1 <0>        -0.0580
      7 C7         -4.8995   -3.0986   -0.8157 C.ar      1 <0>        -0.1381
      8 C8         -5.8397   -2.4567   -1.6112 C.ar      1 <0>         0.1113
      9 C9         -5.4940   -1.3084   -2.3116 C.ar      1 <0>        -0.1989
     10 C10        -4.2171   -0.7984   -2.2154 C.ar      1 <0>        -0.0635
     11 O1         -7.1006   -2.9537   -1.7048 O.3       1 <0>        -0.3254
     12 C11        -8.0173   -2.2440   -2.5404 C.3       1 <0>         0.0282
     13 C12        -9.3756   -2.9480   -2.5204 C.3       1 <0>         0.0010
     14 N1         -9.9453   -2.8744   -1.1683 N.4       1 <0>        -0.3910
     15 C13        -9.1089   -3.6559   -0.2327 C.3       1 <0>        -0.0012
     16 C14       -10.1138   -4.2900    0.7611 C.3       1 <0>        -0.1456
     17 C15       -11.3101   -4.6193   -0.1702 C.3       1 <0>        -0.1419
     18 C16       -11.3049   -3.4448   -1.1711 C.3       1 <0>        -0.0135
     19 C17        -1.0203   -0.8744   -2.5136 C.ar      1 <0>        -0.0199
     20 C18        -0.5919    0.3454   -3.0390 C.ar      1 <0>        -0.1046
     21 C19         0.2228    0.3656   -4.1520 C.ar      1 <0>        -0.0822
     22 C20         0.6150   -0.8207   -4.7478 C.ar      1 <0>        -0.0972
     23 C21         0.1933   -2.0337   -4.2313 C.ar      1 <0>        -0.0816
     24 C22        -0.6165   -2.0672   -3.1150 C.ar      1 <0>        -0.1003
     25 I1          1.8513   -0.7801   -6.4387 I         1 <0>        -0.0365
     26 C23        -2.3466   -0.3325    1.0177 C.ar      1 <0>        -0.0473
     27 C24        -3.4335    0.5474    0.9796 C.ar      1 <0>        -0.0991
     28 C25        -4.2822    0.6361    2.0626 C.ar      1 <0>        -0.1201
     29 C26        -4.0611   -0.1425    3.1853 C.ar      1 <0>        -0.1172
     30 C27        -2.9881   -1.0155    3.2309 C.ar      1 <0>        -0.1169
     31 C28        -2.1332   -1.1198    2.1542 C.ar      1 <0>        -0.1055
     32 H1          1.8836   -0.9265    0.5349 H         1 <0>         0.0634
     33 H2          0.5165   -1.4092    1.5674 H         1 <0>         0.0573
     34 H3          0.6619   -2.0652   -0.0809 H         1 <0>         0.0566
     35 H4          0.0735    0.8245    0.6976 H         1 <0>         0.0750
     36 H5          0.3923    0.2823   -0.9675 H         1 <0>         0.0822
     37 H6         -2.8881   -3.0981   -0.1006 H         1 <0>         0.1321
     38 H7         -5.1720   -3.9914   -0.2725 H         1 <0>         0.1314
     39 H8         -6.2278   -0.8122   -2.9295 H         1 <0>         0.1265
     40 H9         -3.9502    0.0970   -2.7572 H         1 <0>         0.1284
     41 H10        -8.1308   -1.2247   -2.1715 H         1 <0>         0.0852
     42 H11        -7.6352   -2.2207   -3.5610 H         1 <0>         0.1085
     43 H12       -10.0484   -2.4595   -3.2252 H         1 <0>         0.1487
     44 H13        -9.2477   -3.9925   -2.8044 H         1 <0>         0.1403
     45 H14        -8.5641   -4.4329   -0.7691 H         1 <0>         0.1375
     46 H15        -8.4158   -3.0005    0.2947 H         1 <0>         0.1341
     47 H16        -9.7038   -5.1969    1.2056 H         1 <0>         0.1161
     48 H17       -10.4039   -3.5760    1.5319 H         1 <0>         0.0967
     49 H18       -11.1480   -5.5658   -0.6858 H         1 <0>         0.0985
     50 H19       -12.2427   -4.6411    0.3936 H         1 <0>         0.1123
     51 H20       -12.0250   -2.6884   -0.8590 H         1 <0>         0.1324
     52 H21       -11.5532   -3.8068   -2.1688 H         1 <0>         0.1317
     53 H22        -0.8978    1.2716   -2.5755 H         1 <0>         0.1317
     54 H23         0.5550    1.3089   -4.5596 H         1 <0>         0.1324
     55 H24         0.5026   -2.9560   -4.7005 H         1 <0>         0.1312
     56 H25        -0.9410   -3.0143   -2.7100 H         1 <0>         0.1290
     57 H26        -3.6071    1.1559    0.1044 H         1 <0>         0.1185
     58 H27        -5.1216    1.3151    2.0349 H         1 <0>         0.1199
     59 H28        -4.7294   -0.0682    4.0305 H         1 <0>         0.1208
     60 H29        -2.8221   -1.6194    4.1108 H         1 <0>         0.1241
     61 H30        -1.2989   -1.8047    2.1895 H         1 <0>         0.1250
     62 H31        -9.9813   -1.9124   -0.8661 H         1 <0>         0.4243
@<TRIPOS>BOND
     1    1    2 1
     2    1   32 1
     3    1   33 1
     4    1   34 1
     5    2    3 1
     6    2   35 1
     7    2   36 1
     8    3    4 2
     9    3   26 1
    10    4    5 1
    11    4   19 1
    12    5   10 ar
    13    5    6 ar
    14    6    7 ar
    15    6   37 1
    16    7    8 ar
    17    7   38 1
    18    8    9 ar
    19    8   11 1
    20    9   10 ar
    21    9   39 1
    22   10   40 1
    23   11   12 1
    24   12   13 1
    25   12   41 1
    26   12   42 1
    27   13   14 1
    28   13   43 1
    29   13   44 1
    30   14   18 1
    31   14   15 1
    32   14   62 1
    33   15   16 1
    34   15   45 1
    35   15   46 1
    36   16   17 1
    37   16   47 1
    38   16   48 1
    39   17   18 1
    40   17   49 1
    41   17   50 1
    42   18   51 1
    43   18   52 1
    44   19   24 ar
    45   19   20 ar
    46   20   21 ar
    47   20   53 1
    48   21   22 ar
    49   21   54 1
    50   22   23 ar
    51   22   25 1
    52   23   24 ar
    53   23   55 1
    54   24   56 1
    55   26   31 ar
    56   26   27 ar
    57   27   28 ar
    58   27   57 1
    59   28   29 ar
    60   28   58 1
    61   29   30 ar
    62   29   59 1
    63   30   31 ar
    64   30   60 1
    65   31   61 1
@<TRIPOS>MOLECULE
CHEMBL356893
   79    83     0     0     0
SMALL
USER_CHARGES

@<TRIPOS>ATOM
      1 C1         -0.0178    1.4608    0.0101 C.3       1 <0>         0.0584
      2 N1          0.0021   -0.0041    0.0020 N.pl3     1 <0>        -0.5556
      3 C2          0.0241   -0.7433    1.2666 C.3       1 <0>         0.1170
      4 C3         -1.4105   -1.0203    1.7205 C.3       1 <0>        -0.1309
      5 C4         -1.3875   -1.7923    3.0413 C.3       1 <0>        -0.0759
      6 C5         -2.8005   -2.0651    3.4884 C.ar      1 <0>        -0.0853
      7 C6         -3.4587   -1.1539    4.2931 C.ar      1 <0>        -0.1036
      8 C7         -4.7547   -1.4036    4.7034 C.ar      1 <0>        -0.1069
      9 C8         -5.3933   -2.5657    4.3087 C.ar      1 <0>        -0.0354
     10 C9         -4.7340   -3.4773    3.5034 C.ar      1 <0>        -0.1079
     11 C10        -3.4400   -3.2238    3.0890 C.ar      1 <0>        -0.1032
     12 Cl1        -7.0209   -2.8802    4.8242 Cl        1 <0>        -0.0623
     13 C11         0.0000   -0.6876   -1.1969 C.ar      1 <0>         0.6836
     14 N2         -0.0145   -0.0167   -2.3446 N.ar      1 <0>        -0.6389
     15 C12        -0.0165   -0.6751   -3.4993 C.ar      1 <0>         0.6935
     16 N3         -0.0039   -2.0045   -3.5066 N.ar      1 <0>        -0.6197
     17 C13         0.0110   -2.6753   -2.3592 C.ar      1 <0>         0.6736
     18 N4          0.0180   -2.0167   -1.2042 N.ar      1 <0>        -0.6153
     19 N5          0.0236   -4.0553   -2.3667 N.pl3     1 <0>        -0.5247
     20 C14         0.0341   -4.8170   -1.1086 C.3       1 <0>         0.1163
     21 C15        -1.0888   -5.8585   -1.1607 C.3       1 <0>         0.0389
     22 N6         -0.9453   -6.6680   -2.3781 N.3       1 <0>        -0.5336
     23 C16        -1.0957   -5.8453   -3.5858 C.3       1 <0>         0.0385
     24 C17         0.0206   -4.8033   -3.6331 C.3       1 <0>         0.1155
     25 C18        -1.8971   -7.7870   -2.3815 C.3       1 <0>         0.1078
     26 C19        -1.5617   -8.7283   -3.5095 C.ar      1 <0>         0.1244
     27 C20        -0.7724   -9.8360   -3.2631 C.ar      1 <0>        -0.1493
     28 C21        -0.4697  -10.6957   -4.3077 C.ar      1 <0>        -0.0731
     29 C22        -0.9746  -10.4078   -5.5668 C.ar      1 <0>        -0.1672
     30 C23        -1.7570   -9.2816   -5.7372 C.ar      1 <0>         0.1001
     31 N7         -2.0290   -8.4887   -4.7189 N.ar      1 <0>        -0.4843
     32 N8         -0.0320    0.0214   -4.6907 N.pl3     1 <0>        -0.6644
     33 C24        -0.0463    1.4863   -4.6827 C.3       1 <0>         0.0947
     34 C25        -0.0619    2.0041   -6.1224 C.3       1 <0>        -0.0848
     35 C26        -0.0766    3.5110   -6.1141 C.ar      1 <0>        -0.1110
     36 C27        -1.2813    4.1893   -6.0959 C.ar      1 <0>        -0.0936
     37 C28        -1.2975    5.5706   -6.0887 C.ar      1 <0>        -0.1429
     38 C29        -0.1036    6.2772   -6.0994 C.ar      1 <0>         0.1185
     39 C30         1.1038    5.5943   -6.1173 C.ar      1 <0>        -0.1427
     40 C31         1.1146    4.2128   -6.1191 C.ar      1 <0>        -0.0934
     41 O1         -0.1169    7.6362   -6.0929 O.3       1 <0>        -0.4971
     42 H1          1.0048    1.8381    0.0023 H         1 <0>         0.0889
     43 H2         -0.5450    1.8219   -0.8730 H         1 <0>         0.0720
     44 H3         -0.5280    1.8123    0.9069 H         1 <0>         0.1123
     45 H4          0.5496   -1.6879    1.1262 H         1 <0>         0.1072
     46 H5          0.5371   -0.1514    2.0246 H         1 <0>         0.1037
     47 H6         -1.9359   -0.0757    1.8610 H         1 <0>         0.0714
     48 H7         -1.9235   -1.6122    0.9626 H         1 <0>         0.0727
     49 H8         -0.8620   -2.7369    2.9008 H         1 <0>         0.0817
     50 H9         -0.8745   -1.2004    3.7993 H         1 <0>         0.0811
     51 H10        -2.9600   -0.2469    4.6014 H         1 <0>         0.1315
     52 H11        -5.2687   -0.6918    5.3324 H         1 <0>         0.1355
     53 H12        -5.2319   -4.3848    3.1952 H         1 <0>         0.1344
     54 H13        -2.9270   -3.9331    2.4564 H         1 <0>         0.1298
     55 H14         0.9944   -5.3194   -0.9927 H         1 <0>         0.0970
     56 H15        -0.1322   -4.1410   -0.2699 H         1 <0>         0.1113
     57 H16        -1.0266   -6.5045   -0.2850 H         1 <0>         0.1030
     58 H17        -2.0541   -5.3524   -1.1721 H         1 <0>         0.0457
     59 H18        -1.0386   -6.4818   -4.4689 H         1 <0>         0.1108
     60 H19        -2.0609   -5.3394   -3.5634 H         1 <0>         0.0449
     61 H20        -0.1545   -4.1183   -4.4626 H         1 <0>         0.1106
     62 H21         0.9797   -5.3044   -3.7646 H         1 <0>         0.0943
     63 H22        -1.8346   -8.3199   -1.4327 H         1 <0>         0.0969
     64 H23        -2.9083   -7.4034   -2.5168 H         1 <0>         0.0581
     65 H24        -0.3959  -10.0291   -2.2694 H         1 <0>         0.1358
     66 H25         0.1449  -11.5686   -4.1448 H         1 <0>         0.1374
     67 H26        -0.7587  -11.0554   -6.4037 H         1 <0>         0.1376
     68 H27        -2.1540   -9.0504   -6.7146 H         1 <0>         0.1577
     69 H28        -0.0334   -0.4590   -5.5334 H         1 <0>         0.4439
     70 H29        -0.9360    1.8381   -4.1604 H         1 <0>         0.0863
     71 H30         0.8438    1.8556   -4.1734 H         1 <0>         0.0871
     72 H31         0.8278    1.6523   -6.6447 H         1 <0>         0.0933
     73 H32        -0.9520    1.6348   -6.6317 H         1 <0>         0.0932
     74 H33        -2.2104    3.6388   -6.0876 H         1 <0>         0.1285
     75 H34        -2.2387    6.1000   -6.0752 H         1 <0>         0.1338
     76 H35         2.0345    6.1421   -6.1256 H         1 <0>         0.1340
     77 H36         2.0544    3.6807   -6.1285 H         1 <0>         0.1288
     78 H37        -0.1104    8.0253   -5.2077 H         1 <0>         0.3963
     79 H38        -0.0240    0.9532   -2.3393 H         1 <0>         0.4337
@<TRIPOS>BOND
     1    1    2 1
     2    1   42 1
     3    1   43 1
     4    1   44 1
     5    2    3 1
     6    2   13 1
     7    3    4 1
     8    3   45 1
     9    3   46 1
    10    4    5 1
    11    4   47 1
    12    4   48 1
    13    5    6 1
    14    5   49 1
    15    5   50 1
    16    6   11 ar
    17    6    7 ar
    18    7    8 ar
    19    7   51 1
    20    8    9 ar
    21    8   52 1
    22    9   10 ar
    23    9   12 1
    24   10   11 ar
    25   10   53 1
    26   11   54 1
    27   13   18 ar
    28   13   14 ar
    29   14   15 ar
    30   14   79 1
    31   15   16 ar
    32   15   32 1
    33   16   17 ar
    34   17   18 ar
    35   17   19 1
    36   19   24 1
    37   19   20 1
    38   20   21 1
    39   20   55 1
    40   20   56 1
    41   21   22 1
    42   21   57 1
    43   21   58 1
    44   22   23 1
    45   22   25 1
    46   23   24 1
    47   23   59 1
    48   23   60 1
    49   24   61 1
    50   24   62 1
    51   25   26 1
    52   25   63 1
    53   25   64 1
    54   26   31 ar
    55   26   27 ar
    56   27   28 ar
    57   27   65 1
    58   28   29 ar
    59   28   66 1
    60   29   30 ar
    61   29   67 1
    62   30   31 ar
    63   30   68 1
    64   32   33 1
    65   32   69 1
    66   33   34 1
    67   33   70 1
    68   33   71 1
    69   34   35 1
    70   34   72 1
    71   34   73 1
    72   35   40 ar
    73   35   36 ar
    74   36   37 ar
    75   36   74 1
    76   37   38 ar
    77   37   75 1
    78   38   39 ar
    79   38   41 1
    80   39   40 ar
    81   39   76 1
    82   40   77 1
    83   41   78 1
@<TRIPOS>MOLECULE
CHEMBL356893__1
   79    83     0     0     0
SMALL
USER_CHARGES

@<TRIPOS>ATOM
      1 C1         -0.0178    1.4608    0.0101 C.3       1 <0>         0.0994
      2 N1          0.0021   -0.0041    0.0020 N.pl3     1 <0>        -0.5712
      3 C2          0.0241   -0.7433    1.2666 C.3       1 <0>         0.1284
      4 C3         -1.4105   -1.0203    1.7205 C.3       1 <0>        -0.1254
      5 C4         -1.3875   -1.7923    3.0413 C.3       1 <0>        -0.0772
      6 C5         -2.8005   -2.0651    3.4884 C.ar      1 <0>        -0.0782
      7 C6         -3.4587   -1.1539    4.2931 C.ar      1 <0>        -0.1048
      8 C7         -4.7547   -1.4036    4.7034 C.ar      1 <0>        -0.1076
      9 C8         -5.3933   -2.5657    4.3087 C.ar      1 <0>        -0.0382
     10 C9         -4.7340   -3.4773    3.5034 C.ar      1 <0>        -0.1080
     11 C10        -3.4400   -3.2238    3.0890 C.ar      1 <0>        -0.1031
     12 Cl1        -7.0209   -2.8802    4.8242 Cl        1 <0>        -0.0672
     13 C11         0.0000   -0.6876   -1.1969 C.ar      1 <0>         0.6576
     14 N2          0.0126   -2.0171   -1.2042 N.ar      1 <0>        -0.6595
     15 C12         0.0106   -2.6754   -2.3589 C.ar      1 <0>         0.6588
     16 N3         -0.0039   -2.0045   -3.5066 N.ar      1 <0>        -0.6809
     17 C13        -0.0169   -0.6754   -3.4993 C.ar      1 <0>         0.6564
     18 N4         -0.0200   -0.0169   -2.3443 N.ar      1 <0>        -0.6771
     19 N5         -0.0315    0.0211   -4.6907 N.pl3     1 <0>        -0.5968
     20 C14        -0.0398    1.4921   -4.7069 C.3       1 <0>         0.1096
     21 C15         1.0694    1.9737   -5.6479 C.3       1 <0>        -0.0208
     22 N6          0.8954    1.3521   -6.9667 N.4       1 <0>        -0.3816
     23 C16         1.0705   -0.1019   -6.8613 C.3       1 <0>        -0.0195
     24 C17        -0.0330   -0.6864   -5.9805 C.3       1 <0>         0.1103
     25 C18         1.8918    1.8973   -7.8984 C.3       1 <0>         0.0562
     26 C19         1.6377    1.3533   -9.2806 C.ar      1 <0>         0.0515
     27 C20         0.8859    2.0897  -10.1769 C.ar      1 <0>        -0.1419
     28 C21         0.6580    1.5803  -11.4459 C.ar      1 <0>        -0.0669
     29 C22         1.1971    0.3437  -11.7674 C.ar      1 <0>        -0.1348
     30 C23         1.9383   -0.3348  -10.8189 C.ar      1 <0>         0.1103
     31 N7          2.1394    0.1830   -9.6228 N.ar      1 <0>        -0.4678
     32 N8          0.0241   -4.0554   -2.3664 N.pl3     1 <0>        -0.6833
     33 C24         0.0405   -4.7947   -1.1018 C.3       1 <0>         0.1422
     34 C25         0.0532   -6.2974   -1.3895 C.3       1 <0>        -0.0916
     35 C26         0.0701   -7.0579   -0.0886 C.ar      1 <0>        -0.0955
     36 C27         1.2759   -7.3895    0.5013 C.ar      1 <0>        -0.0950
     37 C28         1.2941   -8.0869    1.6936 C.ar      1 <0>        -0.1429
     38 C29         0.1013   -8.4543    2.2993 C.ar      1 <0>         0.1097
     39 C30        -1.1072   -8.1200    1.7056 C.ar      1 <0>        -0.1424
     40 C31        -1.1201   -7.4179    0.5159 C.ar      1 <0>        -0.0949
     41 O1          0.1166   -9.1409    3.4720 O.3       1 <0>        -0.4992
     42 H1          1.0048    1.8381    0.0023 H         1 <0>         0.0560
     43 H2         -0.5450    1.8219   -0.8730 H         1 <0>         0.0790
     44 H3         -0.5280    1.8123    0.9069 H         1 <0>         0.0741
     45 H4          0.5496   -1.6879    1.1262 H         1 <0>         0.0922
     46 H5          0.5371   -0.1514    2.0246 H         1 <0>         0.0823
     47 H6         -1.9359   -0.0757    1.8610 H         1 <0>         0.0643
     48 H7         -1.9235   -1.6122    0.9626 H         1 <0>         0.0684
     49 H8         -0.8620   -2.7369    2.9008 H         1 <0>         0.0782
     50 H9         -0.8745   -1.2004    3.7993 H         1 <0>         0.0771
     51 H10        -2.9600   -0.2469    4.6014 H         1 <0>         0.1311
     52 H11        -5.2687   -0.6918    5.3324 H         1 <0>         0.1340
     53 H12        -5.2319   -4.3848    3.1952 H         1 <0>         0.1329
     54 H13        -2.9270   -3.9331    2.4564 H         1 <0>         0.1297
     55 H14        -1.0052    1.8490   -5.0659 H         1 <0>         0.0916
     56 H15         0.1430    1.8705   -3.7012 H         1 <0>         0.1423
     57 H16         1.0164    3.0579   -5.7472 H         1 <0>         0.1454
     58 H17         2.0401    1.6931   -5.2391 H         1 <0>         0.1345
     59 H18         1.0183   -0.5473   -7.8548 H         1 <0>         0.1455
     60 H19         2.0412   -0.3197   -6.4158 H         1 <0>         0.1340
     61 H20         0.1544   -1.7476   -5.8164 H         1 <0>         0.1414
     62 H21        -0.9976   -0.5532   -6.4702 H         1 <0>         0.0880
     63 H22         1.8160    2.9845   -7.9161 H         1 <0>         0.1457
     64 H23         2.8908    1.6080   -7.5721 H         1 <0>         0.1441
     65 H24         0.4810    3.0495   -9.8921 H         1 <0>         0.1450
     66 H25         0.0741    2.1332  -12.1669 H         1 <0>         0.1497
     67 H26         1.0393   -0.0837  -12.7466 H         1 <0>         0.1510
     68 H27         2.3615   -1.2984  -11.0615 H         1 <0>         0.1720
     69 H28         0.0226   -4.5359   -3.2091 H         1 <0>         0.4163
     70 H29         0.9321   -4.5258   -0.5353 H         1 <0>         0.0732
     71 H30        -0.8477   -4.5432   -0.5223 H         1 <0>         0.0734
     72 H31        -0.8384   -6.5663   -1.9560 H         1 <0>         0.0814
     73 H32         0.9415   -6.5489   -1.9690 H         1 <0>         0.0813
     74 H33         2.2042   -7.1033    0.0294 H         1 <0>         0.1264
     75 H34         2.2362   -8.3464    2.1536 H         1 <0>         0.1304
     76 H35        -2.0371   -8.4048    2.1752 H         1 <0>         0.1304
     77 H36        -2.0606   -7.1535    0.0556 H         1 <0>         0.1265
     78 H37         0.1129   -8.5773    4.2578 H         1 <0>         0.3936
     79 H38        -0.0307    1.5539   -7.3127 H         1 <0>         0.4209
@<TRIPOS>BOND
     1    1    2 1
     2    1   42 1
     3    1   43 1
     4    1   44 1
     5    2    3 1
     6    2   13 1
     7    3    4 1
     8    3   45 1
     9    3   46 1
    10    4    5 1
    11    4   47 1
    12    4   48 1
    13    5    6 1
    14    5   49 1
    15    5   50 1
    16    6   11 ar
    17    6    7 ar
    18    7    8 ar
    19    7   51 1
    20    8    9 ar
    21    8   52 1
    22    9   10 ar
    23    9   12 1
    24   10   11 ar
    25   10   53 1
    26   11   54 1
    27   13   18 ar
    28   13   14 ar
    29   14   15 ar
    30   15   16 ar
    31   15   32 1
    32   16   17 ar
    33   17   18 ar
    34   17   19 1
    35   19   24 1
    36   19   20 1
    37   20   21 1
    38   20   55 1
    39   20   56 1
    40   21   22 1
    41   21   57 1
    42   21   58 1
    43   22   23 1
    44   22   25 1
    45   22   79 1
    46   23   24 1
    47   23   59 1
    48   23   60 1
    49   24   61 1
    50   24   62 1
    51   25   26 1
    52   25   63 1
    53   25   64 1
    54   26   31 ar
    55   26   27 ar
    56   27   28 ar
    57   27   65 1
    58   28   29 ar
    59   28   66 1
    60   29   30 ar
    61   29   67 1
    62   30   31 ar
    63   30   68 1
    64   32   33 1
    65   32   69 1
    66   33   34 1
    67   33   70 1
    68   33   71 1
    69   34   35 1
    70   34   72 1
    71   34   73 1
    72   35   40 ar
    73   35   36 ar
    74   36   37 ar
    75   36   74 1
    76   37   38 ar
    77   37   75 1
    78   38   39 ar
    79   38   41 1
    80   39   40 ar
    81   39   76 1
    82   40   77 1
    83   41   78 1
@<TRIPOS>MOLECULE
CHEMBL356893__2
   78    82     0     0     0
SMALL
USER_CHARGES

@<TRIPOS>ATOM
      1 C1         -0.0178    1.4608    0.0101 C.3       1 <0>         0.1028
      2 N1          0.0021   -0.0041    0.0020 N.pl3     1 <0>        -0.5788
      3 C2          0.0241   -0.7433    1.2666 C.3       1 <0>         0.1335
      4 C3         -1.4105   -1.0203    1.7205 C.3       1 <0>        -0.1261
      5 C4         -1.3875   -1.7923    3.0413 C.3       1 <0>        -0.0775
      6 C5         -2.8005   -2.0651    3.4884 C.ar      1 <0>        -0.0742
      7 C6         -3.4587   -1.1539    4.2931 C.ar      1 <0>        -0.1053
      8 C7         -4.7547   -1.4036    4.7034 C.ar      1 <0>        -0.1084
      9 C8         -5.3933   -2.5657    4.3087 C.ar      1 <0>        -0.0397
     10 C9         -4.7340   -3.4773    3.5034 C.ar      1 <0>        -0.1080
     11 C10        -3.4400   -3.2238    3.0890 C.ar      1 <0>        -0.1025
     12 Cl1        -7.0209   -2.8802    4.8242 Cl        1 <0>        -0.0715
     13 C11         0.0000   -0.6876   -1.1969 C.ar      1 <0>         0.6527
     14 N2          0.0126   -2.0171   -1.2042 N.ar      1 <0>        -0.6724
     15 C12         0.0106   -2.6754   -2.3589 C.ar      1 <0>         0.6538
     16 N3         -0.0039   -2.0045   -3.5066 N.ar      1 <0>        -0.6815
     17 C13        -0.0169   -0.6754   -3.4993 C.ar      1 <0>         0.6572
     18 N4         -0.0200   -0.0169   -2.3443 N.ar      1 <0>        -0.6779
     19 N5         -0.0315    0.0211   -4.6907 N.pl3     1 <0>        -0.5753
     20 C14        -0.0399    1.4918   -4.7054 C.3       1 <0>         0.1348
     21 C15         1.0813    1.9758   -5.6311 C.3       1 <0>         0.0416
     22 N6          0.9335    1.3407   -6.9474 N.3       1 <0>        -0.5325
     23 C16         1.0820   -0.1179   -6.8550 C.3       1 <0>         0.0416
     24 C17        -0.0330   -0.6876   -5.9795 C.3       1 <0>         0.1342
     25 C18         1.8836    1.9064   -7.9145 C.3       1 <0>         0.1047
     26 C19         1.5439    1.4156   -9.2983 C.ar      1 <0>         0.1332
     27 C20         0.7536    2.1930  -10.1240 C.ar      1 <0>        -0.1513
     28 C21         0.4470    1.7324  -11.3950 C.ar      1 <0>        -0.0751
     29 C22         0.9490    0.5016  -11.7899 C.ar      1 <0>        -0.1730
     30 C23         1.7326   -0.2199  -10.9096 C.ar      1 <0>         0.0998
     31 N7          2.0084    0.2521   -9.7094 N.ar      1 <0>        -0.4816
     32 N8          0.0241   -4.0554   -2.3664 N.pl3     1 <0>        -0.6913
     33 C24         0.0405   -4.7947   -1.1018 C.3       1 <0>         0.1472
     34 C25         0.0532   -6.2974   -1.3895 C.3       1 <0>        -0.0937
     35 C26         0.0701   -7.0579   -0.0886 C.ar      1 <0>        -0.0893
     36 C27         1.2759   -7.3895    0.5013 C.ar      1 <0>        -0.0954
     37 C28         1.2941   -8.0869    1.6936 C.ar      1 <0>        -0.1430
     38 C29         0.1013   -8.4543    2.2993 C.ar      1 <0>         0.1047
     39 C30        -1.1072   -8.1200    1.7056 C.ar      1 <0>        -0.1426
     40 C31        -1.1201   -7.4179    0.5159 C.ar      1 <0>        -0.0954
     41 O1          0.1166   -9.1409    3.4720 O.3       1 <0>        -0.5003
     42 H1          1.0048    1.8381    0.0023 H         1 <0>         0.0522
     43 H2         -0.5450    1.8219   -0.8730 H         1 <0>         0.0806
     44 H3         -0.5280    1.8123    0.9069 H         1 <0>         0.0681
     45 H4          0.5496   -1.6879    1.1262 H         1 <0>         0.0896
     46 H5          0.5371   -0.1514    2.0246 H         1 <0>         0.0766
     47 H6         -1.9359   -0.0757    1.8610 H         1 <0>         0.0628
     48 H7         -1.9235   -1.6122    0.9626 H         1 <0>         0.0693
     49 H8         -0.8620   -2.7369    2.9008 H         1 <0>         0.0778
     50 H9         -0.8745   -1.2004    3.7993 H         1 <0>         0.0757
     51 H10        -2.9600   -0.2469    4.6014 H         1 <0>         0.1311
     52 H11        -5.2687   -0.6918    5.3324 H         1 <0>         0.1327
     53 H12        -5.2319   -4.3848    3.1952 H         1 <0>         0.1322
     54 H13        -2.9270   -3.9331    2.4564 H         1 <0>         0.1308
     55 H14        -1.0007    1.8488   -5.0762 H         1 <0>         0.0733
     56 H15         0.1296    1.8690   -3.6968 H         1 <0>         0.1032
     57 H16         1.0204    3.0586   -5.7408 H         1 <0>         0.0903
     58 H17         2.0473    1.7068   -5.2039 H         1 <0>         0.0403
     59 H18         1.0217   -0.5535   -7.8524 H         1 <0>         0.0980
     60 H19         2.0480   -0.3577   -6.4107 H         1 <0>         0.0392
     61 H20         0.1411   -1.7507   -5.8130 H         1 <0>         0.1021
     62 H21        -0.9931   -0.5442   -6.4752 H         1 <0>         0.0700
     63 H22         1.8228    2.9944   -7.8898 H         1 <0>         0.0925
     64 H23         2.8951    1.5930   -7.6560 H         1 <0>         0.0543
     65 H24         0.3794    3.1471   -9.7830 H         1 <0>         0.1351
     66 H25        -0.1685    2.3181  -12.0618 H         1 <0>         0.1348
     67 H26         0.7300    0.1115  -12.7729 H         1 <0>         0.1348
     68 H27         2.1274   -1.1793  -11.2096 H         1 <0>         0.1559
     69 H28         0.0226   -4.5359   -3.2091 H         1 <0>         0.4143
     70 H29         0.9321   -4.5258   -0.5353 H         1 <0>         0.0690
     71 H30        -0.8477   -4.5432   -0.5223 H         1 <0>         0.0692
     72 H31        -0.8384   -6.5663   -1.9560 H         1 <0>         0.0811
     73 H32         0.9415   -6.5489   -1.9690 H         1 <0>         0.0811
     74 H33         2.2042   -7.1033    0.0294 H         1 <0>         0.1271
     75 H34         2.2362   -8.3464    2.1536 H         1 <0>         0.1289
     76 H35        -2.0371   -8.4048    2.1752 H         1 <0>         0.1289
     77 H36        -2.0606   -7.1535    0.0556 H         1 <0>         0.1270
     78 H37         0.1129   -8.5773    4.2578 H         1 <0>         0.3917
@<TRIPOS>BOND
     1    1    2 1
     2    1   42 1
     3    1   43 1
     4    1   44 1
     5    2    3 1
     6    2   13 1
     7    3    4 1
     8    3   45 1
     9    3   46 1
    10    4    5 1
    11    4   47 1
    12    4   48 1
    13    5    6 1
    14    5   49 1
    15    5   50 1
    16    6   11 ar
    17    6    7 ar
    18    7    8 ar
    19    7   51 1
    20    8    9 ar
    21    8   52 1
    22    9   10 ar
    23    9   12 1
    24   10   11 ar
    25   10   53 1
    26   11   54 1
    27   13   18 ar
    28   13   14 ar
    29   14   15 ar
    30   15   16 ar
    31   15   32 1
    32   16   17 ar
    33   17   18 ar
    34   17   19 1
    35   19   24 1
    36   19   20 1
    37   20   21 1
    38   20   55 1
    39   20   56 1
    40   21   22 1
    41   21   57 1
    42   21   58 1
    43   22   23 1
    44   22   25 1
    45   23   24 1
    46   23   59 1
    47   23   60 1
    48   24   61 1
    49   24   62 1
    50   25   26 1
    51   25   63 1
    52   25   64 1
    53   26   31 ar
    54   26   27 ar
    55   27   28 ar
    56   27   65 1
    57   28   29 ar
    58   28   66 1
    59   29   30 ar
    60   29   67 1
    61   30   31 ar
    62   30   68 1
    63   32   33 1
    64   32   69 1
    65   33   34 1
    66   33   70 1
    67   33   71 1
    68   34   35 1
    69   34   72 1
    70   34   73 1
    71   35   40 ar
    72   35   36 ar
    73   36   37 ar
    74   36   74 1
    75   37   38 ar
    76   37   75 1
    77   38   39 ar
    78   38   41 1
    79   39   40 ar
    80   39   76 1
    81   40   77 1
    82   41   78 1
@<TRIPOS>MOLECULE
CHEMBL356893__3
   79    83     0     0     0
SMALL
USER_CHARGES

@<TRIPOS>ATOM
      1 C1          0.0184    1.4610    0.0098 C.3       1 <0>         0.0786
      2 N1          0.0256   -0.0040    0.0018 N.pl3     1 <0>        -0.5288
      3 C2          0.0476   -0.7433    1.2664 C.3       1 <0>         0.1107
      4 C3         -1.3870   -1.0078    1.7276 C.3       1 <0>        -0.1284
      5 C4         -1.3640   -1.7799    3.0483 C.3       1 <0>        -0.0764
      6 C5         -2.7771   -2.0404    3.5025 C.ar      1 <0>        -0.0839
      7 C6         -3.4233   -1.1235    4.3104 C.ar      1 <0>        -0.1033
      8 C7         -4.7193   -1.3619    4.7274 C.ar      1 <0>        -0.1066
      9 C8         -5.3699   -2.5185    4.3360 C.ar      1 <0>        -0.0361
     10 C9         -4.7226   -3.4358    3.5275 C.ar      1 <0>        -0.1084
     11 C10        -3.4286   -3.1936    3.1066 C.ar      1 <0>        -0.1043
     12 Cl1        -6.9975   -2.8188    4.8598 Cl        1 <0>        -0.0633
     13 C11         0.0116   -0.6876   -1.1970 C.ar      1 <0>         0.6718
     14 N2          0.0126   -2.0171   -1.2042 N.ar      1 <0>        -0.6168
     15 C12        -0.0010   -2.6755   -2.3588 C.ar      1 <0>         0.6930
     16 N3         -0.0155   -2.0046   -3.5065 N.ar      1 <0>        -0.6395
     17 C13        -0.0169   -0.6754   -3.4993 C.ar      1 <0>         0.6867
     18 N4         -0.0084   -0.0168   -2.3444 N.ar      1 <0>        -0.6176
     19 N5         -0.0315    0.0211   -4.6907 N.pl3     1 <0>        -0.5541
     20 C14        -0.1499    1.4870   -4.7068 C.3       1 <0>         0.1233
     21 C15         0.9712    2.0564   -5.5826 C.3       1 <0>         0.0366
     22 N6          0.9297    1.4153   -6.9037 N.3       1 <0>        -0.5324
     23 C16         1.1833   -0.0281   -6.8038 C.3       1 <0>         0.0385
     24 C17         0.0770   -0.6824   -5.9778 C.3       1 <0>         0.1057
     25 C18         1.8761    2.0534   -7.8285 C.3       1 <0>         0.1079
     26 C19         1.6355    1.5421   -9.2255 C.ar      1 <0>         0.1220
     27 C20         0.8259    2.2599  -10.0857 C.ar      1 <0>        -0.1480
     28 C21         0.6110    1.7809  -11.3687 C.ar      1 <0>        -0.0723
     29 C22         1.2211    0.5923  -11.7402 C.ar      1 <0>        -0.1659
     30 C23         2.0173   -0.0704  -10.8258 C.ar      1 <0>         0.0993
     31 N7          2.2038    0.4178   -9.6149 N.ar      1 <0>        -0.4859
     32 N8          0.0005   -4.0556   -2.3662 N.pl3     1 <0>        -0.6639
     33 C24        -0.0144   -4.7812   -3.6388 C.3       1 <0>         0.0938
     34 C25        -0.0093   -6.2870   -3.3673 C.3       1 <0>        -0.0841
     35 C26        -0.0246   -7.0334   -4.6764 C.ar      1 <0>        -0.1113
     36 C27        -1.2296   -7.3717   -5.2639 C.ar      1 <0>        -0.0934
     37 C28        -1.2464   -8.0564   -6.4636 C.ar      1 <0>        -0.1428
     38 C29        -0.0527   -8.4042   -7.0792 C.ar      1 <0>         0.1187
     39 C30         1.1551   -8.0632   -6.4879 C.ar      1 <0>        -0.1426
     40 C31         1.1664   -7.3739   -5.2907 C.ar      1 <0>        -0.0933
     41 O1         -0.0665   -9.0781   -8.2592 O.3       1 <0>        -0.4971
     42 H1          1.0442    1.8294   -0.0032 H         1 <0>         0.0766
     43 H2         -0.5101    1.8266   -0.8707 H         1 <0>         0.0921
     44 H3         -0.4841    1.8170    0.9091 H         1 <0>         0.0914
     45 H4          0.5642   -1.6924    1.1234 H         1 <0>         0.1013
     46 H5          0.5696   -0.1557    2.0217 H         1 <0>         0.0999
     47 H6         -1.9035   -0.0586    1.8705 H         1 <0>         0.0720
     48 H7         -1.9090   -1.5953    0.9723 H         1 <0>         0.0706
     49 H8         -0.8475   -2.7290    2.9053 H         1 <0>         0.0801
     50 H9         -0.8420   -1.1923    3.8036 H         1 <0>         0.0807
     51 H10        -2.9152   -0.2208    4.6161 H         1 <0>         0.1321
     52 H11        -5.2239   -0.6456    5.3588 H         1 <0>         0.1357
     53 H12        -5.2299   -4.3389    3.2219 H         1 <0>         0.1340
     54 H13        -2.9249   -3.9073    2.4715 H         1 <0>         0.1293
     55 H14        -1.1176    1.7717   -5.1199 H         1 <0>         0.1007
     56 H15        -0.0538    1.8733   -3.6921 H         1 <0>         0.1186
     57 H16         0.8340    3.1318   -5.6957 H         1 <0>         0.1078
     58 H17         1.9351    1.8597   -5.1131 H         1 <0>         0.0495
     59 H18         1.1999   -0.4645   -7.8025 H         1 <0>         0.1154
     60 H19         2.1442   -0.1958   -6.3173 H         1 <0>         0.0488
     61 H20         0.3231   -1.7298   -5.8030 H         1 <0>         0.0792
     62 H21        -0.8685   -0.6103   -6.5154 H         1 <0>         0.1095
     63 H22         1.7325    3.1337   -7.8072 H         1 <0>         0.0999
     64 H23         2.8959    1.8163   -7.5255 H         1 <0>         0.0601
     65 H24         0.3664    3.1822   -9.7623 H         1 <0>         0.1367
     66 H25        -0.0169    2.3203  -12.0623 H         1 <0>         0.1383
     67 H26         1.0755    0.1894  -12.7317 H         1 <0>         0.1382
     68 H27         2.4960   -0.9967  -11.1073 H         1 <0>         0.1577
     69 H28         0.0115   -4.5451   -1.5289 H         1 <0>         0.4437
     70 H29        -0.9116   -4.5159   -4.1979 H         1 <0>         0.0870
     71 H30         0.8682   -4.5138   -4.2199 H         1 <0>         0.0865
     72 H31         0.8880   -6.5523   -2.8082 H         1 <0>         0.0931
     73 H32        -0.8918   -6.5544   -2.7862 H         1 <0>         0.0932
     74 H33        -2.1586   -7.1008   -4.7843 H         1 <0>         0.1286
     75 H34        -2.1879   -8.3210   -6.9218 H         1 <0>         0.1338
     76 H35         2.0856   -8.3328   -6.9651 H         1 <0>         0.1339
     77 H36         2.1063   -7.1044   -4.8321 H         1 <0>         0.1286
     78 H37        -0.0730   -8.5061   -9.0388 H         1 <0>         0.3963
     79 H38        -0.0247   -2.4850   -4.3491 H         1 <0>         0.4327
@<TRIPOS>BOND
     1    1    2 1
     2    1   42 1
     3    1   43 1
     4    1   44 1
     5    2    3 1
     6    2   13 1
     7    3    4 1
     8    3   45 1
     9    3   46 1
    10    4    5 1
    11    4   47 1
    12    4   48 1
    13    5    6 1
    14    5   49 1
    15    5   50 1
    16    6   11 ar
    17    6    7 ar
    18    7    8 ar
    19    7   51 1
    20    8    9 ar
    21    8   52 1
    22    9   10 ar
    23    9   12 1
    24   10   11 ar
    25   10   53 1
    26   11   54 1
    27   13   18 ar
    28   13   14 ar
    29   14   15 ar
    30   15   16 ar
    31   15   32 1
    32   16   17 ar
    33   16   79 1
    34   17   18 ar
    35   17   19 1
    36   19   24 1
    37   19   20 1
    38   20   21 1
    39   20   55 1
    40   20   56 1
    41   21   22 1
    42   21   57 1
    43   21   58 1
    44   22   23 1
    45   22   25 1
    46   23   24 1
    47   23   59 1
    48   23   60 1
    49   24   61 1
    50   24   62 1
    51   25   26 1
    52   25   63 1
    53   25   64 1
    54   26   31 ar
    55   26   27 ar
    56   27   28 ar
    57   27   65 1
    58   28   29 ar
    59   28   66 1
    60   29   30 ar
    61   29   67 1
    62   30   31 ar
    63   30   68 1
    64   32   33 1
    65   32   69 1
    66   33   34 1
    67   33   70 1
    68   33   71 1
    69   34   35 1
    70   34   72 1
    71   34   73 1
    72   35   40 ar
    73   35   36 ar
    74   36   37 ar
    75   36   74 1
    76   37   38 ar
    77   37   75 1
    78   38   39 ar
    79   38   41 1
    80   39   40 ar
    81   39   76 1
    82   40   77 1
    83   41   78 1
@<TRIPOS>MOLECULE
CHEMBL1086644
   71    76     0     0     0
SMALL
USER_CHARGES

@<TRIPOS>ATOM
      1 C1          0.0438    1.0466    0.0482 C.ar      1 <0>        -0.0563
      2 C2          1.1882    1.8192    0.0061 C.ar      1 <0>        -0.1353
      3 C3          2.4352    1.2115    0.0270 C.ar      1 <0>         0.1195
      4 C4          2.5294   -0.1712    0.0902 C.ar      1 <0>        -0.2034
      5 C5          1.3820   -0.9394    0.1320 C.ar      1 <0>        -0.0546
      6 C6          0.1404   -0.3313    0.1110 C.ar      1 <0>        -0.0950
      7 C7         -1.1097   -1.1716    0.1572 C.3       1 <0>         0.1884
      8 C8         -1.4626   -1.4583    1.5977 C.2       1 <0>        -0.1264
      9 C9         -2.1052   -2.5994    1.9007 C.2       1 <0>        -0.0206
     10 C10        -2.4579   -2.8990    3.3371 C.3       1 <0>        -0.0861
     11 C11        -3.9275   -2.5509    3.5849 C.3       1 <0>        -0.1485
     12 C12        -4.0461   -1.1190    4.0997 C.3       1 <0>         0.0631
     13 O1         -3.4369   -0.2085    3.1836 O.3       1 <0>        -0.3252
     14 C13        -2.1333    0.1181    3.4178 C.ar      1 <0>         0.1324
     15 C14        -1.1343   -0.4733    2.6329 C.ar      1 <0>        -0.0583
     16 C15         0.2021   -0.1144    2.8487 C.ar      1 <0>        -0.0768
     17 C16         0.5211    0.7957    3.8323 C.ar      1 <0>        -0.1544
     18 C17        -0.4746    1.3625    4.6179 C.ar      1 <0>         0.1280
     19 C18        -1.8048    1.0220    4.4073 C.ar      1 <0>        -0.1710
     20 O2         -0.1473    2.2504    5.5928 O.3       1 <0>        -0.4955
     21 C19        -2.4261   -3.5493    0.8268 C.ar      1 <0>        -0.1324
     22 C20        -3.3299   -4.5922    1.0158 C.ar      1 <0>        -0.0510
     23 C21        -3.6120   -5.4480   -0.0291 C.ar      1 <0>        -0.1683
     24 C22        -3.0001   -5.2717   -1.2644 C.ar      1 <0>         0.1504
     25 C23        -2.0931   -4.2382   -1.4588 C.ar      1 <0>        -0.1680
     26 C24        -1.7972   -3.3802   -0.4186 C.ar      1 <0>         0.1484
     27 O3         -0.8873   -2.3831   -0.5617 O.3       1 <0>        -0.3041
     28 O4         -3.2909   -6.1161   -2.2883 O.3       1 <0>        -0.4939
     29 O5          3.5625    1.9693   -0.0147 O.3       1 <0>        -0.3273
     30 C25         4.8117    1.2758    0.0102 C.3       1 <0>         0.0250
     31 C26         5.9580    2.2878   -0.0434 C.3       1 <0>        -0.0011
     32 N1          5.9254    3.1288    1.1606 N.4       1 <0>        -0.3839
     33 C27         6.9247    4.1968    1.0368 C.3       1 <0>        -0.0072
     34 C28         6.8396    5.1234    2.2516 C.3       1 <0>        -0.1465
     35 C29         7.1096    4.3145    3.5236 C.3       1 <0>        -0.1390
     36 C30         6.1082    3.1588    3.6040 C.3       1 <0>        -0.1450
     37 C31         6.2203    2.3050    2.3391 C.3       1 <0>        -0.0136
     38 H1         -0.9271    1.5194    0.0364 H         1 <0>         0.1367
     39 H2          1.1123    2.8954   -0.0434 H         1 <0>         0.1358
     40 H3          3.4990   -0.6467    0.1062 H         1 <0>         0.1300
     41 H4          1.4548   -2.0158    0.1812 H         1 <0>         0.1361
     42 H5         -1.9279   -0.6229   -0.3093 H         1 <0>         0.0880
     43 H6         -2.2967   -3.9582    3.5374 H         1 <0>         0.0826
     44 H7         -1.8273   -2.3041    3.9977 H         1 <0>         0.0757
     45 H8         -4.4842   -2.6474    2.6528 H         1 <0>         0.0803
     46 H9         -4.3418   -3.2364    4.3242 H         1 <0>         0.0882
     47 H10        -5.0994   -0.8635    4.2152 H         1 <0>         0.1004
     48 H11        -3.5510   -1.0417    5.0677 H         1 <0>         0.0612
     49 H12         0.9829   -0.5515    2.2440 H         1 <0>         0.1344
     50 H13         1.5530    1.0704    3.9942 H         1 <0>         0.1252
     51 H14        -2.5797    1.4635    5.0163 H         1 <0>         0.1386
     52 H15        -0.1309    3.1709    5.2970 H         1 <0>         0.3930
     53 H16        -3.8073   -4.7301    1.9747 H         1 <0>         0.1366
     54 H17        -4.3117   -6.2582    0.1134 H         1 <0>         0.1376
     55 H18        -1.6208   -4.1060   -2.4210 H         1 <0>         0.1414
     56 H19        -4.0347   -5.8292   -2.8356 H         1 <0>         0.3985
     57 H20         4.8850    0.6921    0.9278 H         1 <0>         0.0867
     58 H21         4.8746    0.6096   -0.8502 H         1 <0>         0.1101
     59 H22         6.9090    1.7574   -0.0905 H         1 <0>         0.1490
     60 H23         5.8477    2.9152   -0.9279 H         1 <0>         0.1428
     61 H24         7.9209    3.7574    0.9846 H         1 <0>         0.1292
     62 H25         6.7332    4.7695    0.1294 H         1 <0>         0.1310
     63 H26         7.5835    5.9146    2.1586 H         1 <0>         0.1130
     64 H27         5.8439    5.5635    2.3046 H         1 <0>         0.0878
     65 H28         8.1239    3.9165    3.4940 H         1 <0>         0.0821
     66 H29         6.9946    4.9579    4.3959 H         1 <0>         0.0947
     67 H30         6.3292    2.5457    4.4777 H         1 <0>         0.1123
     68 H31         5.0972    3.5581    3.6851 H         1 <0>         0.0878
     69 H32         5.5088    1.4810    2.3932 H         1 <0>         0.1273
     70 H33         7.2315    1.9059    2.2591 H         1 <0>         0.1303
     71 H34         5.0086    3.5385    1.2588 H         1 <0>         0.4292
@<TRIPOS>BOND
     1    1    6 ar
     2    1    2 ar
     3    1   38 1
     4    2    3 ar
     5    2   39 1
     6    3    4 ar
     7    3   29 1
     8    4    5 ar
     9    4   40 1
    10    5    6 ar
    11    5   41 1
    12    6    7 1
    13    7   27 1
    14    7    8 1
    15    7   42 1
    16    8   15 1
    17    8    9 2
    18    9   10 1
    19    9   21 1
    20   10   11 1
    21   10   43 1
    22   10   44 1
    23   11   12 1
    24   11   45 1
    25   11   46 1
    26   12   13 1
    27   12   47 1
    28   12   48 1
    29   13   14 1
    30   14   19 ar
    31   14   15 ar
    32   15   16 ar
    33   16   17 ar
    34   16   49 1
    35   17   18 ar
    36   17   50 1
    37   18   19 ar
    38   18   20 1
    39   19   51 1
    40   20   52 1
    41   21   26 ar
    42   21   22 ar
    43   22   23 ar
    44   22   53 1
    45   23   24 ar
    46   23   54 1
    47   24   25 ar
    48   24   28 1
    49   25   26 ar
    50   25   55 1
    51   26   27 1
    52   28   56 1
    53   29   30 1
    54   30   31 1
    55   30   57 1
    56   30   58 1
    57   31   32 1
    58   31   59 1
    59   31   60 1
    60   32   37 1
    61   32   33 1
    62   32   71 1
    63   33   34 1
    64   33   61 1
    65   33   62 1
    66   34   35 1
    67   34   63 1
    68   34   64 1
    69   35   36 1
    70   35   65 1
    71   35   66 1
    72   36   37 1
    73   36   67 1
    74   36   68 1
    75   37   69 1
    76   37   70 1
@<TRIPOS>MOLECULE
CHEMBL1086644__1
   71    76     0     0     0
SMALL
USER_CHARGES

@<TRIPOS>ATOM
      1 C1          0.0438    1.0466    0.0482 C.ar      1 <0>        -0.0567
      2 C2          1.1882    1.8192    0.0061 C.ar      1 <0>        -0.1377
      3 C3          2.4352    1.2115    0.0270 C.ar      1 <0>         0.1177
      4 C4          2.5294   -0.1712    0.0902 C.ar      1 <0>        -0.1979
      5 C5          1.3820   -0.9394    0.1320 C.ar      1 <0>        -0.0653
      6 C6          0.1404   -0.3313    0.1110 C.ar      1 <0>        -0.1252
      7 C7         -1.1097   -1.1716    0.1572 C.3       1 <0>         0.1860
      8 C8         -1.4101   -1.6924   -1.2286 C.2       1 <0>        -0.1126
      9 C9         -0.8912   -2.8716   -1.6117 C.2       1 <0>        -0.0275
     10 C10        -1.1850   -3.4029   -2.9933 C.3       1 <0>        -0.0870
     11 C11        -0.0025   -3.1044   -3.9176 C.3       1 <0>        -0.1452
     12 C12        -0.2251   -1.7781   -4.6395 C.3       1 <0>         0.0622
     13 O1         -0.4331   -0.7261   -3.6968 O.3       1 <0>        -0.3243
     14 C13        -1.7262   -0.4404   -3.3691 C.ar      1 <0>         0.1309
     15 C14        -2.2302   -0.8908   -2.1419 C.ar      1 <0>        -0.0680
     16 C15        -3.5467   -0.5691   -1.7880 C.ar      1 <0>        -0.0776
     17 C16        -4.3325    0.1648   -2.6489 C.ar      1 <0>        -0.1482
     18 C17        -3.8297    0.5909   -3.8718 C.ar      1 <0>         0.1317
     19 C18        -2.5227    0.2863   -4.2304 C.ar      1 <0>        -0.1716
     20 O2         -4.6169    1.3053   -4.7179 O.3       1 <0>        -0.4947
     21 C19        -0.0742   -3.6396   -0.6625 C.ar      1 <0>        -0.1293
     22 C20         0.7159   -4.7104   -1.0738 C.ar      1 <0>        -0.0527
     23 C21         1.4778   -5.3916   -0.1468 C.ar      1 <0>        -0.1708
     24 C22         1.4594   -5.0123    1.1899 C.ar      1 <0>         0.1469
     25 C23         0.6698   -3.9494    1.6088 C.ar      1 <0>        -0.1751
     26 C24        -0.1032   -3.2657    0.6919 C.ar      1 <0>         0.1484
     27 O3         -0.9176   -2.2486    1.0723 O.3       1 <0>        -0.2953
     28 O4          2.2192   -5.6854    2.0930 O.3       1 <0>        -0.4911
     29 O5          3.5625    1.9693   -0.0147 O.3       1 <0>        -0.3278
     30 C25         4.8117    1.2758    0.0102 C.3       1 <0>         0.0258
     31 C26         5.9580    2.2878   -0.0434 C.3       1 <0>        -0.0007
     32 N1          5.9254    3.1288    1.1606 N.4       1 <0>        -0.3841
     33 C27         6.9247    4.1968    1.0368 C.3       1 <0>        -0.0070
     34 C28         6.8396    5.1234    2.2516 C.3       1 <0>        -0.1467
     35 C29         7.1096    4.3145    3.5236 C.3       1 <0>        -0.1389
     36 C30         6.1082    3.1588    3.6040 C.3       1 <0>        -0.1453
     37 C31         6.2203    2.3050    2.3391 C.3       1 <0>        -0.0131
     38 H1         -0.9271    1.5194    0.0364 H         1 <0>         0.1358
     39 H2          1.1123    2.8954   -0.0434 H         1 <0>         0.1344
     40 H3          3.4990   -0.6467    0.1062 H         1 <0>         0.1261
     41 H4          1.4548   -2.0158    0.1812 H         1 <0>         0.1328
     42 H5         -1.9429   -0.5565    0.4970 H         1 <0>         0.1314
     43 H6         -1.3431   -4.4802   -2.9422 H         1 <0>         0.0821
     44 H7         -2.0819   -2.9224   -3.3841 H         1 <0>         0.0782
     45 H8          0.9120   -3.0458   -3.3274 H         1 <0>         0.0758
     46 H9          0.0935   -3.9042   -4.6519 H         1 <0>         0.0865
     47 H10         0.6488   -1.5484   -5.2490 H         1 <0>         0.0962
     48 H11        -1.0993   -1.8615   -5.2851 H         1 <0>         0.0618
     49 H12        -3.9461   -0.8971   -0.8396 H         1 <0>         0.1361
     50 H13        -5.3466    0.4110   -2.3710 H         1 <0>         0.1370
     51 H14        -2.1311    0.6170   -5.1810 H         1 <0>         0.1374
     52 H15        -4.5676    2.2622   -4.5874 H         1 <0>         0.3963
     53 H16         0.7319   -5.0061   -2.1125 H         1 <0>         0.1369
     54 H17         2.0908   -6.2233   -0.4614 H         1 <0>         0.1370
     55 H18         0.6602   -3.6589    2.6489 H         1 <0>         0.1416
     56 H19         3.1089   -5.3237    2.2057 H         1 <0>         0.3939
     57 H20         4.8850    0.6921    0.9278 H         1 <0>         0.0856
     58 H21         4.8746    0.6096   -0.8502 H         1 <0>         0.1086
     59 H22         6.9090    1.7574   -0.0905 H         1 <0>         0.1487
     60 H23         5.8477    2.9152   -0.9279 H         1 <0>         0.1426
     61 H24         7.9209    3.7574    0.9846 H         1 <0>         0.1291
     62 H25         6.7332    4.7695    0.1294 H         1 <0>         0.1310
     63 H26         7.5835    5.9146    2.1586 H         1 <0>         0.1131
     64 H27         5.8439    5.5635    2.3046 H         1 <0>         0.0880
     65 H28         8.1239    3.9165    3.4940 H         1 <0>         0.0820
     66 H29         6.9946    4.9579    4.3959 H         1 <0>         0.0948
     67 H30         6.3292    2.5457    4.4777 H         1 <0>         0.1123
     68 H31         5.0972    3.5581    3.6851 H         1 <0>         0.0880
     69 H32         5.5088    1.4810    2.3932 H         1 <0>         0.1270
     70 H33         7.2315    1.9059    2.2591 H         1 <0>         0.1301
     71 H34         5.0086    3.5385    1.2588 H         1 <0>         0.4295
@<TRIPOS>BOND
     1    1    6 ar
     2    1    2 ar
     3    1   38 1
     4    2    3 ar
     5    2   39 1
     6    3    4 ar
     7    3   29 1
     8    4    5 ar
     9    4   40 1
    10    5    6 ar
    11    5   41 1
    12    6    7 1
    13    7   27 1
    14    7    8 1
    15    7   42 1
    16    8   15 1
    17    8    9 2
    18    9   10 1
    19    9   21 1
    20   10   11 1
    21   10   43 1
    22   10   44 1
    23   11   12 1
    24   11   45 1
    25   11   46 1
    26   12   13 1
    27   12   47 1
    28   12   48 1
    29   13   14 1
    30   14   19 ar
    31   14   15 ar
    32   15   16 ar
    33   16   17 ar
    34   16   49 1
    35   17   18 ar
    36   17   50 1
    37   18   19 ar
    38   18   20 1
    39   19   51 1
    40   20   52 1
    41   21   26 ar
    42   21   22 ar
    43   22   23 ar
    44   22   53 1
    45   23   24 ar
    46   23   54 1
    47   24   25 ar
    48   24   28 1
    49   25   26 ar
    50   25   55 1
    51   26   27 1
    52   28   56 1
    53   29   30 1
    54   30   31 1
    55   30   57 1
    56   30   58 1
    57   31   32 1
    58   31   59 1
    59   31   60 1
    60   32   37 1
    61   32   33 1
    62   32   71 1
    63   33   34 1
    64   33   61 1
    65   33   62 1
    66   34   35 1
    67   34   63 1
    68   34   64 1
    69   35   36 1
    70   35   65 1
    71   35   66 1
    72   36   37 1
    73   36   67 1
    74   36   68 1
    75   37   69 1
    76   37   70 1
@<TRIPOS>MOLECULE
CHEMBL371192
   65    68     0     0     0
SMALL
USER_CHARGES

@<TRIPOS>ATOM
      1 C1         -0.0306    1.5155    0.0134 C.3       1 <0>        -0.1460
      2 C2         -0.0004   -0.0142    0.0085 C.3       1 <0>        -0.0796
      3 C3          0.7023   -0.4987   -1.2335 C.2       1 <0>        -0.0534
      4 C4          2.0006   -0.8219   -1.2948 C.2       1 <0>        -0.0664
      5 C5          2.3082   -1.2570   -2.7086 C.3       1 <0>        -0.0312
      6 C6          1.0042   -1.1405   -3.4598 C.ar      1 <0>        -0.0899
      7 C7          0.0537   -0.6864   -2.5395 C.ar      1 <0>        -0.0614
      8 C8         -1.2664   -0.4888   -2.9608 C.ar      1 <0>        -0.0734
      9 C9         -1.6171   -0.7455   -4.2681 C.ar      1 <0>        -0.1341
     10 C10        -0.6665   -1.2006   -5.1725 C.ar      1 <0>         0.1167
     11 C11         0.6487   -1.3902   -4.7633 C.ar      1 <0>        -0.1226
     12 O1         -1.0199   -1.4520   -6.4601 O.3       1 <0>        -0.4952
     13 C12         2.7915   -2.6843   -2.7214 C.2       1 <0>         0.5385
     14 O2          2.8822   -3.3032   -1.6822 O.2       1 <0>        -0.4973
     15 N1          3.1229   -3.2732   -3.8875 N.am      1 <0>        -0.6739
     16 C13         3.6628   -4.5661   -3.8909 C.ar      1 <0>         0.1300
     17 C14         4.6313   -4.9118   -4.8237 C.ar      1 <0>        -0.1038
     18 C15         5.1634   -6.1861   -4.8262 C.ar      1 <0>        -0.1202
     19 C16         4.7301   -7.1208   -3.8972 C.ar      1 <0>         0.0964
     20 C17         3.7622   -6.7761   -2.9652 C.ar      1 <0>        -0.1815
     21 C18         3.2337   -5.5003   -2.9577 C.ar      1 <0>        -0.0789
     22 O3          5.2541   -8.3754   -3.9004 O.3       1 <0>        -0.3286
     23 C19         4.7619   -9.2866   -2.9158 C.3       1 <0>         0.0240
     24 C20         5.4633  -10.6371   -3.0747 C.3       1 <0>        -0.0011
     25 N2          6.8944  -10.4831   -2.7808 N.4       1 <0>        -0.3887
     26 C21         7.0678  -10.1190   -1.3683 C.3       1 <0>        -0.0548
     27 C22         7.5883  -11.7499   -3.0487 C.3       1 <0>        -0.0473
     28 C23         2.9610   -0.7631   -0.1789 C.ar      1 <0>        -0.0329
     29 C24         4.0297    0.1368   -0.2204 C.ar      1 <0>        -0.0908
     30 C25         4.9251    0.1885    0.8259 C.ar      1 <0>        -0.1455
     31 C26         4.7670   -0.6521    1.9202 C.ar      1 <0>         0.1101
     32 C27         3.7069   -1.5482    1.9659 C.ar      1 <0>        -0.1466
     33 C28         2.8028   -1.6029    0.9272 C.ar      1 <0>        -0.0651
     34 O4          5.6526   -0.5978    2.9492 O.3       1 <0>        -0.5012
     35 H1          0.9896    1.8991    0.0002 H         1 <0>         0.0567
     36 H2         -0.5639    1.8713   -0.8681 H         1 <0>         0.0566
     37 H3         -0.5389    1.8660    0.9117 H         1 <0>         0.0618
     38 H4          0.5329   -0.3699    0.8900 H         1 <0>         0.0779
     39 H5         -1.0206   -0.3977    0.0217 H         1 <0>         0.0758
     40 H6          3.0578   -0.6004   -3.1505 H         1 <0>         0.1321
     41 H7         -2.0096   -0.1357   -2.2614 H         1 <0>         0.1335
     42 H8         -2.6362   -0.5923   -4.5911 H         1 <0>         0.1376
     43 H9          1.3876   -1.7453   -5.4664 H         1 <0>         0.1268
     44 H10        -0.9284   -0.6905   -7.0489 H         1 <0>         0.3957
     45 H11         2.9876   -2.8019   -4.7245 H         1 <0>         0.4123
     46 H12         4.9682   -4.1844   -5.5475 H         1 <0>         0.1393
     47 H13         5.9168   -6.4551   -5.5517 H         1 <0>         0.1376
     48 H14         3.4248   -7.5045   -2.2427 H         1 <0>         0.1300
     49 H15         2.4836   -5.2307   -2.2290 H         1 <0>         0.1470
     50 H16         4.9609   -8.8887   -1.9208 H         1 <0>         0.0868
     51 H17         3.6877   -9.4175   -3.0467 H         1 <0>         0.1087
     52 H18         5.0258  -11.3573   -2.3833 H         1 <0>         0.1491
     53 H19         5.3387  -10.9931   -4.0973 H         1 <0>         0.1425
     54 H20         6.5529   -9.1790   -1.1695 H         1 <0>         0.1219
     55 H21         6.6495  -10.9029   -0.7370 H         1 <0>         0.1246
     56 H22         8.1296  -10.0047   -1.1502 H         1 <0>         0.1273
     57 H23         7.4596  -12.0201   -4.0968 H         1 <0>         0.1246
     58 H24         8.6501  -11.6357   -2.8306 H         1 <0>         0.1256
     59 H25         7.1700  -12.5338   -2.4173 H         1 <0>         0.1229
     60 H26         4.1539    0.7903   -1.0713 H         1 <0>         0.1262
     61 H27         5.7512    0.8835    0.7947 H         1 <0>         0.1307
     62 H28         3.5883   -2.2001    2.8188 H         1 <0>         0.1295
     63 H29         1.9762   -2.2970    0.9656 H         1 <0>         0.1271
     64 H30         5.4098    0.0290    3.6444 H         1 <0>         0.3936
     65 H31         7.2816   -9.7574   -3.3652 H         1 <0>         0.4340
@<TRIPOS>BOND
     1    1    2 1
     2    1   35 1
     3    1   36 1
     4    1   37 1
     5    2    3 1
     6    2   38 1
     7    2   39 1
     8    3    7 1
     9    3    4 2
    10    4    5 1
    11    4   28 1
    12    5    6 1
    13    5   13 1
    14    5   40 1
    15    6   11 ar
    16    6    7 ar
    17    7    8 ar
    18    8    9 ar
    19    8   41 1
    20    9   10 ar
    21    9   42 1
    22   10   11 ar
    23   10   12 1
    24   11   43 1
    25   12   44 1
    26   13   14 2
    27   13   15 am
    28   15   16 1
    29   15   45 1
    30   16   21 ar
    31   16   17 ar
    32   17   18 ar
    33   17   46 1
    34   18   19 ar
    35   18   47 1
    36   19   20 ar
    37   19   22 1
    38   20   21 ar
    39   20   48 1
    40   21   49 1
    41   22   23 1
    42   23   24 1
    43   23   50 1
    44   23   51 1
    45   24   25 1
    46   24   52 1
    47   24   53 1
    48   25   26 1
    49   25   27 1
    50   25   65 1
    51   26   54 1
    52   26   55 1
    53   26   56 1
    54   27   57 1
    55   27   58 1
    56   27   59 1
    57   28   33 ar
    58   28   29 ar
    59   29   30 ar
    60   29   60 1
    61   30   31 ar
    62   30   61 1
    63   31   32 ar
    64   31   34 1
    65   32   33 ar
    66   32   62 1
    67   33   63 1
    68   34   64 1
@<TRIPOS>MOLECULE
CHEMBL371192__1
   65    68     0     0     0
SMALL
USER_CHARGES

@<TRIPOS>ATOM
      1 C1          0.8657   -0.4242    1.6810 C.3       1 <0>        -0.1457
      2 C2          0.5286   -1.5877    0.7463 C.3       1 <0>        -0.0798
      3 C3          1.0515   -1.2898   -0.6353 C.2       1 <0>        -0.0436
      4 C4          2.2318   -1.7106   -1.1082 C.2       1 <0>        -0.0759
      5 C5          2.3772   -1.2018   -2.5234 C.3       1 <0>        -0.0282
      6 C6          1.1137   -0.4256   -2.8053 C.ar      1 <0>        -0.0830
      7 C7          0.3320   -0.5034   -1.6480 C.ar      1 <0>        -0.0602
      8 C8         -0.9162    0.1295   -1.6219 C.ar      1 <0>        -0.0741
      9 C9         -1.3633    0.8152   -2.7300 C.ar      1 <0>        -0.1340
     10 C10        -0.5812    0.8821   -3.8757 C.ar      1 <0>         0.1140
     11 C11         0.6638    0.2638   -3.9054 C.ar      1 <0>        -0.1209
     12 O1         -1.0289    1.5598   -4.9648 O.3       1 <0>        -0.4938
     13 C12         3.5788   -0.2988   -2.6318 C.2       1 <0>         0.5404
     14 O2          3.9111    0.3847   -1.6865 O.2       1 <0>        -0.4988
     15 N1          4.2842   -0.2507   -3.7792 N.am      1 <0>        -0.6750
     16 C13         5.4567    0.5132   -3.8492 C.ar      1 <0>         0.1301
     17 C14         6.5226    0.0799   -4.6263 C.ar      1 <0>        -0.1036
     18 C15         7.6777    0.8334   -4.6952 C.ar      1 <0>        -0.1200
     19 C16         7.7734    2.0229   -3.9879 C.ar      1 <0>         0.0960
     20 C17         6.7090    2.4562   -3.2109 C.ar      1 <0>        -0.1815
     21 C18         5.5511    1.7067   -3.1460 C.ar      1 <0>        -0.0808
     22 O3          8.9113    2.7642   -4.0558 O.3       1 <0>        -0.3286
     23 C19         8.9408    3.9779   -3.3020 C.3       1 <0>         0.0242
     24 C20        10.2909    4.6695   -3.5015 C.3       1 <0>        -0.0014
     25 N2         10.4279    5.0804   -4.9052 N.4       1 <0>        -0.3886
     26 C21         9.4185    6.1011   -5.2173 C.3       1 <0>        -0.0545
     27 C22        11.7700    5.6360   -5.1241 C.3       1 <0>        -0.0474
     28 C23         3.2164   -2.5266   -0.3763 C.ar      1 <0>        -0.0446
     29 C24         3.4647   -3.8450   -0.7687 C.ar      1 <0>        -0.0877
     30 C25         4.3868   -4.6040   -0.0813 C.ar      1 <0>        -0.1457
     31 C26         5.0687   -4.0612    1.0001 C.ar      1 <0>         0.1129
     32 C27         4.8250   -2.7518    1.3941 C.ar      1 <0>        -0.1469
     33 C28         3.9093   -1.9829    0.7091 C.ar      1 <0>        -0.0709
     34 O4          5.9766   -4.8136    1.6750 O.3       1 <0>        -0.4982
     35 H1          1.9469   -0.2927    1.7222 H         1 <0>         0.0566
     36 H2          0.4027    0.4887    1.3063 H         1 <0>         0.0559
     37 H3          0.4874   -0.6396    2.6803 H         1 <0>         0.0623
     38 H4          0.9916   -2.5006    1.1210 H         1 <0>         0.0780
     39 H5         -0.5526   -1.7191    0.7051 H         1 <0>         0.0767
     40 H6          2.4689   -2.0376   -3.2170 H         1 <0>         0.1238
     41 H7         -1.5287    0.0799   -0.7338 H         1 <0>         0.1336
     42 H8         -2.3267    1.3027   -2.7078 H         1 <0>         0.1373
     43 H9          1.2715    0.3149   -4.7968 H         1 <0>         0.1285
     44 H10        -0.7782    2.4937   -4.9774 H         1 <0>         0.3928
     45 H11         3.9802   -0.7449   -4.5565 H         1 <0>         0.4144
     46 H12         6.4485   -0.8465   -5.1764 H         1 <0>         0.1396
     47 H13         8.5069    0.4965   -5.2996 H         1 <0>         0.1376
     48 H14         6.7845    3.3820   -2.6599 H         1 <0>         0.1299
     49 H15         4.7206    2.0466   -2.5450 H         1 <0>         0.1469
     50 H16         8.1415    4.6364   -3.6420 H         1 <0>         0.0866
     51 H17         8.8008    3.7524   -2.2448 H         1 <0>         0.1087
     52 H18        10.3478    5.5478   -2.8586 H         1 <0>         0.1492
     53 H19        11.0943    3.9789   -3.2451 H         1 <0>         0.1426
     54 H20         8.4226    5.6888   -5.0549 H         1 <0>         0.1216
     55 H21         9.5639    6.9657   -4.5698 H         1 <0>         0.1245
     56 H22         9.5201    6.4060   -6.2589 H         1 <0>         0.1273
     57 H23        12.5190    4.8786   -4.8925 H         1 <0>         0.1247
     58 H24        11.8716    5.9409   -6.1656 H         1 <0>         0.1258
     59 H25        11.9154    6.5006   -4.4766 H         1 <0>         0.1229
     60 H26         2.9345   -4.2682   -1.6090 H         1 <0>         0.1285
     61 H27         4.5794   -5.6228   -0.3838 H         1 <0>         0.1323
     62 H28         5.3574   -2.3341    2.2359 H         1 <0>         0.1307
     63 H29         3.7237   -0.9634    1.0135 H         1 <0>         0.1302
     64 H30         6.8766   -4.7497    1.3273 H         1 <0>         0.3920
     65 H31        10.2933    4.2800   -5.5047 H         1 <0>         0.4339
@<TRIPOS>BOND
     1    1    2 1
     2    1   35 1
     3    1   36 1
     4    1   37 1
     5    2    3 1
     6    2   38 1
     7    2   39 1
     8    3    7 1
     9    3    4 2
    10    4    5 1
    11    4   28 1
    12    5    6 1
    13    5   13 1
    14    5   40 1
    15    6   11 ar
    16    6    7 ar
    17    7    8 ar
    18    8    9 ar
    19    8   41 1
    20    9   10 ar
    21    9   42 1
    22   10   11 ar
    23   10   12 1
    24   11   43 1
    25   12   44 1
    26   13   14 2
    27   13   15 am
    28   15   16 1
    29   15   45 1
    30   16   21 ar
    31   16   17 ar
    32   17   18 ar
    33   17   46 1
    34   18   19 ar
    35   18   47 1
    36   19   20 ar
    37   19   22 1
    38   20   21 ar
    39   20   48 1
    40   21   49 1
    41   22   23 1
    42   23   24 1
    43   23   50 1
    44   23   51 1
    45   24   25 1
    46   24   52 1
    47   24   53 1
    48   25   26 1
    49   25   27 1
    50   25   65 1
    51   26   54 1
    52   26   55 1
    53   26   56 1
    54   27   57 1
    55   27   58 1
    56   27   59 1
    57   28   33 ar
    58   28   29 ar
    59   29   30 ar
    60   29   60 1
    61   30   31 ar
    62   30   61 1
    63   31   32 ar
    64   31   34 1
    65   32   33 ar
    66   32   62 1
    67   33   63 1
    68   34   64 1
@<TRIPOS>MOLECULE
CHEMBL315866
   45    48     0     0     0
SMALL
USER_CHARGES

@<TRIPOS>ATOM
      1 C1          4.3250   -4.1501   -2.3783 C.ar      1 <0>        -0.1225
      2 C2          3.0481   -3.8204   -1.9638 C.ar      1 <0>        -0.1233
      3 C3          2.8407   -2.6885   -1.1978 C.ar      1 <0>        -0.1088
      4 C4          3.9103   -1.8867   -0.8458 C.ar      1 <0>        -0.0778
      5 C5          5.1873   -2.2169   -1.2595 C.ar      1 <0>        -0.1149
      6 C6          5.3945   -3.3479   -2.0267 C.ar      1 <0>        -0.1248
      7 C7          3.6841   -0.6522   -0.0115 C.3       1 <0>        -0.0988
      8 C8          4.0347   -0.9513    1.4474 C.3       1 <0>         0.2154
      9 C9          5.4367   -1.5024    1.5238 C.ar      1 <0>        -0.0902
     10 C10         6.4371   -0.8215    0.8424 C.ar      1 <0>        -0.0950
     11 C11         7.7409   -1.2678    0.8808 C.ar      1 <0>        -0.1506
     12 C12         8.0556   -2.4068    1.6082 C.ar      1 <0>         0.1091
     13 C13         7.0572   -3.0869    2.2836 C.ar      1 <0>        -0.1484
     14 C14         5.7432   -2.6389    2.2386 C.ar      1 <0>        -0.0415
     15 C15         4.7063   -3.4453    2.9754 C.3       1 <0>        -0.1018
     16 C16         3.4550   -2.6098    3.2407 C.3       1 <0>         0.1390
     17 N1          3.0877   -1.9337    1.9854 N.pl3     1 <0>        -0.6528
     18 C17         1.8857   -2.2168    1.3327 C.ar      1 <0>         0.2037
     19 C18         1.5556   -3.5294    1.0202 C.ar      1 <0>        -0.1423
     20 C19         0.3661   -3.8059    0.3753 C.ar      1 <0>        -0.1006
     21 C20        -0.4957   -2.7777    0.0402 C.ar      1 <0>        -0.1466
     22 C21        -0.1703   -1.4698    0.3499 C.ar      1 <0>        -0.1000
     23 C22         1.0150   -1.1869    0.9999 C.ar      1 <0>        -0.1592
     24 O1          9.3384   -2.8529    1.6568 O.3       1 <0>        -0.4999
     25 H1          4.4876   -5.0368   -2.9730 H         1 <0>         0.1154
     26 H2          2.2125   -4.4469   -2.2388 H         1 <0>         0.1154
     27 H3          1.8430   -2.4306   -0.8746 H         1 <0>         0.1324
     28 H4          6.0229   -1.5902   -0.9848 H         1 <0>         0.1255
     29 H5          6.3921   -3.6057   -2.3502 H         1 <0>         0.1149
     30 H6          4.3169    0.1557   -0.3790 H         1 <0>         0.0840
     31 H7          2.6379   -0.3541   -0.0800 H         1 <0>         0.0911
     32 H8          3.9746   -0.0325    2.0306 H         1 <0>         0.0746
     33 H9          6.1915    0.0654    0.2771 H         1 <0>         0.1279
     34 H10         8.5133   -0.7339    0.3473 H         1 <0>         0.1290
     35 H11         7.3017   -3.9732    2.8503 H         1 <0>         0.1253
     36 H12         4.4363   -4.3150    2.3763 H         1 <0>         0.0787
     37 H13         5.1216   -3.7806    3.9257 H         1 <0>         0.0807
     38 H14         2.6400   -3.2582    3.5624 H         1 <0>         0.0806
     39 H15         3.6634   -1.8681    4.0117 H         1 <0>         0.0653
     40 H16         2.2286   -4.3328    1.2810 H         1 <0>         0.1172
     41 H17         0.1089   -4.8262    0.1320 H         1 <0>         0.1203
     42 H18        -1.4250   -2.9965   -0.4647 H         1 <0>         0.1200
     43 H19        -0.8456   -0.6691    0.0868 H         1 <0>         0.1218
     44 H20         1.2665   -0.1657    1.2454 H         1 <0>         0.1218
     45 H21         9.8554   -2.4848    2.3864 H         1 <0>         0.3905
@<TRIPOS>BOND
     1    1    6 ar
     2    1    2 ar
     3    1   25 1
     4    2    3 ar
     5    2   26 1
     6    3    4 ar
     7    3   27 1
     8    4    5 ar
     9    4    7 1
    10    5    6 ar
    11    5   28 1
    12    6   29 1
    13    7    8 1
    14    7   30 1
    15    7   31 1
    16    8   17 1
    17    8    9 1
    18    8   32 1
    19    9   14 ar
    20    9   10 ar
    21   10   11 ar
    22   10   33 1
    23   11   12 ar
    24   11   34 1
    25   12   13 ar
    26   12   24 1
    27   13   14 ar
    28   13   35 1
    29   14   15 1
    30   15   16 1
    31   15   36 1
    32   15   37 1
    33   16   17 1
    34   16   38 1
    35   16   39 1
    36   17   18 1
    37   18   23 ar
    38   18   19 ar
    39   19   20 ar
    40   19   40 1
    41   20   21 ar
    42   20   41 1
    43   21   22 ar
    44   21   42 1
    45   22   23 ar
    46   22   43 1
    47   23   44 1
    48   24   45 1
@<TRIPOS>MOLECULE
CHEMBL315866__1
   45    48     0     0     0
SMALL
USER_CHARGES

@<TRIPOS>ATOM
      1 C1         -0.0334    1.3300    0.0218 C.ar      1 <0>        -0.1201
      2 C2          1.1488    2.0462    0.0041 C.ar      1 <0>        -0.1145
      3 C3          2.3601    1.3804   -0.0116 C.ar      1 <0>        -0.0983
      4 C4          2.3893   -0.0017   -0.0089 C.ar      1 <0>        -0.0767
      5 C5          1.2071   -0.7179    0.0098 C.ar      1 <0>        -0.1200
      6 C6         -0.0043   -0.0521    0.0240 C.ar      1 <0>        -0.1170
      7 C7          3.7098   -0.7275   -0.0270 C.3       1 <0>        -0.0899
      8 C8          4.1782   -0.9700    1.4093 C.3       1 <0>         0.2039
      9 C9          5.4326   -1.8072    1.3935 C.ar      1 <0>        -0.0998
     10 C10         5.3125   -3.1456    1.0424 C.ar      1 <0>        -0.0944
     11 C11         6.4226   -3.9618    0.9990 C.ar      1 <0>        -0.1453
     12 C12         7.6709   -3.4402    1.3076 C.ar      1 <0>         0.1097
     13 C13         7.7890   -2.1074    1.6612 C.ar      1 <0>        -0.1475
     14 C14         6.6683   -1.2882    1.7102 C.ar      1 <0>        -0.0461
     15 C15         6.8698    0.1442    2.1296 C.3       1 <0>        -0.1006
     16 C16         5.6942    1.0121    1.6837 C.3       1 <0>         0.1205
     17 N1          4.4512    0.3171    2.0574 N.pl3     1 <0>        -0.6203
     18 C17         3.5676    0.8615    2.9922 C.ar      1 <0>         0.2302
     19 C18         2.3508    0.2404    3.2439 C.ar      1 <0>        -0.1864
     20 C19         1.4797    0.7811    4.1691 C.ar      1 <0>        -0.0711
     21 C20         1.8174    1.9397    4.8444 C.ar      1 <0>        -0.1789
     22 C21         3.0279    2.5606    4.5962 C.ar      1 <0>        -0.0732
     23 C22         3.9061    2.0221    3.6764 C.ar      1 <0>        -0.2001
     24 O1          8.7725   -4.2348    1.2633 O.3       1 <0>        -0.4993
     25 H1         -0.9797    1.8502    0.0386 H         1 <0>         0.1182
     26 H2          1.1260    3.1260    0.0020 H         1 <0>         0.1173
     27 H3          3.2838    1.9399   -0.0262 H         1 <0>         0.1135
     28 H4          1.2298   -1.7976    0.0114 H         1 <0>         0.1177
     29 H5         -0.9279   -0.6116    0.0382 H         1 <0>         0.1192
     30 H6          3.5919   -1.6836   -0.5370 H         1 <0>         0.0826
     31 H7          4.4491   -0.1237   -0.5532 H         1 <0>         0.0764
     32 H8          3.3989   -1.4958    1.9610 H         1 <0>         0.0981
     33 H9          4.3407   -3.5506    0.8017 H         1 <0>         0.1279
     34 H10         6.3212   -5.0019    0.7265 H         1 <0>         0.1307
     35 H11         8.7604   -1.7009    1.9010 H         1 <0>         0.1282
     36 H12         6.9584    0.1909    3.2150 H         1 <0>         0.0831
     37 H13         7.7869    0.5240    1.6792 H         1 <0>         0.0852
     38 H14         5.7400    1.9799    2.1830 H         1 <0>         0.0905
     39 H15         5.7280    1.1518    0.6032 H         1 <0>         0.0687
     40 H16         2.0862   -0.6640    2.7163 H         1 <0>         0.1172
     41 H17         0.5335    0.2988    4.3653 H         1 <0>         0.1166
     42 H18         1.1340    2.3608    5.5669 H         1 <0>         0.1151
     43 H19         3.2885    3.4653    5.1253 H         1 <0>         0.1179
     44 H20         4.8533    2.5049    3.4864 H         1 <0>         0.1192
     45 H21         9.2117   -4.2506    0.4019 H         1 <0>         0.3918
@<TRIPOS>BOND
     1    1    6 ar
     2    1    2 ar
     3    1   25 1
     4    2    3 ar
     5    2   26 1
     6    3    4 ar
     7    3   27 1
     8    4    5 ar
     9    4    7 1
    10    5    6 ar
    11    5   28 1
    12    6   29 1
    13    7    8 1
    14    7   30 1
    15    7   31 1
    16    8   17 1
    17    8    9 1
    18    8   32 1
    19    9   14 ar
    20    9   10 ar
    21   10   11 ar
    22   10   33 1
    23   11   12 ar
    24   11   34 1
    25   12   13 ar
    26   12   24 1
    27   13   14 ar
    28   13   35 1
    29   14   15 1
    30   15   16 1
    31   15   36 1
    32   15   37 1
    33   16   17 1
    34   16   38 1
    35   16   39 1
    36   17   18 1
    37   18   23 ar
    38   18   19 ar
    39   19   20 ar
    40   19   40 1
    41   20   21 ar
    42   20   41 1
    43   21   22 ar
    44   21   42 1
    45   22   23 ar
    46   22   43 1
    47   23   44 1
    48   24   45 1
@<TRIPOS>MOLECULE
CHEMBL68055
   66    70     0     0     0
SMALL
USER_CHARGES

@<TRIPOS>ATOM
      1 C1         -0.3860    1.5432   -0.0490 C.3       1 <0>        -0.1172
      2 C2         -0.4040    0.0365   -0.0751 C.2       1 <0>        -0.0301
      3 C3         -1.5648   -0.6437    0.0000 C.2       1 <0>        -0.1355
      4 C4         -1.5553   -2.1499    0.0089 C.3       1 <0>         0.1884
      5 H1         -2.4820   -2.5171   -0.4321 H         1 <0>         0.1317
      6 O1         -0.4484   -2.6535   -0.7374 O.3       1 <0>        -0.2932
      7 C5          0.7690   -2.0981   -0.5092 C.ar      1 <0>         0.1489
      8 C6          0.8469   -0.7341   -0.1898 C.ar      1 <0>        -0.1394
      9 C7          2.0877   -0.1367    0.0196 C.ar      1 <0>        -0.0530
     10 C8          3.2357   -0.8957   -0.0819 C.ar      1 <0>        -0.1714
     11 C9          3.1558   -2.2482   -0.3901 C.ar      1 <0>         0.1512
     12 C10         1.9245   -2.8492   -0.5958 C.ar      1 <0>        -0.1752
     13 O2          4.2917   -2.9878   -0.4808 O.3       1 <0>        -0.4918
     14 C11        -1.4559   -2.6369    1.4315 C.ar      1 <0>        -0.1292
     15 C12        -0.2308   -2.6508    2.0723 C.ar      1 <0>        -0.0677
     16 C13        -0.1370   -3.0973    3.3762 C.ar      1 <0>        -0.1369
     17 C14        -1.2735   -3.5315    4.0430 C.ar      1 <0>         0.1180
     18 C15        -2.5017   -3.5161    3.3980 C.ar      1 <0>        -0.2002
     19 C16        -2.5910   -3.0638    2.0957 C.ar      1 <0>        -0.0623
     20 O3         -1.1837   -3.9715    5.3256 O.3       1 <0>        -0.3278
     21 C17        -2.3946   -4.4034    5.9495 C.3       1 <0>         0.0251
     22 C18        -2.0971   -4.8596    7.3793 C.3       1 <0>        -0.0009
     23 N1         -1.6083   -3.7191    8.1655 N.4       1 <0>        -0.3841
     24 C19        -1.1766   -4.1874    9.4879 C.3       1 <0>        -0.0071
     25 C20        -0.5915   -3.0173   10.2816 C.3       1 <0>        -0.1467
     26 C21        -1.6611   -1.9337   10.4463 C.3       1 <0>        -0.1390
     27 C22        -2.1573   -1.5057    9.0622 C.3       1 <0>        -0.1453
     28 C23        -2.6844   -2.7318    8.3136 C.3       1 <0>        -0.0132
     29 C24        -2.8429    0.0856    0.0741 C.ar      1 <0>        -0.0504
     30 C25        -3.6336   -0.0003    1.2235 C.ar      1 <0>        -0.0913
     31 C26        -4.8280    0.6841    1.2882 C.ar      1 <0>        -0.1459
     32 C27        -5.2467    1.4579    0.2135 C.ar      1 <0>         0.1130
     33 C28        -4.4648    1.5460   -0.9309 C.ar      1 <0>        -0.1403
     34 C29        -3.2658    0.8703   -1.0027 C.ar      1 <0>        -0.0835
     35 O4         -6.4253    2.1305    0.2818 O.3       1 <0>        -0.4990
     36 H2          0.6426    1.8956   -0.1252 H         1 <0>         0.0712
     37 H3         -0.9652    1.9281   -0.8884 H         1 <0>         0.0790
     38 H4         -0.8225    1.8956    0.8855 H         1 <0>         0.0750
     39 H5          2.1509    0.9144    0.2597 H         1 <0>         0.1389
     40 H6          4.2001   -0.4367    0.0784 H         1 <0>         0.1376
     41 H7          1.8700   -3.9009   -0.8354 H         1 <0>         0.1426
     42 H8          4.5639   -3.3946    0.3532 H         1 <0>         0.3962
     43 H9          0.6536   -2.3127    1.5528 H         1 <0>         0.1384
     44 H10         0.8203   -3.1086    3.8760 H         1 <0>         0.1335
     45 H11        -3.3878   -3.8536    3.9149 H         1 <0>         0.1305
     46 H12        -3.5476   -3.0475    1.5946 H         1 <0>         0.1345
     47 H13        -3.1061   -3.5780    5.9722 H         1 <0>         0.0865
     48 H14        -2.8187   -5.2332    5.3842 H         1 <0>         0.1100
     49 H15        -3.0080   -5.2501    7.8331 H         1 <0>         0.1493
     50 H16        -1.3368   -5.6405    7.3607 H         1 <0>         0.1427
     51 H17        -2.0318   -4.5982   10.0245 H         1 <0>         0.1293
     52 H18        -0.4177   -4.9607    9.3691 H         1 <0>         0.1311
     53 H19        -0.2732   -3.3667   11.2638 H         1 <0>         0.1132
     54 H20         0.2641   -2.6058    9.7461 H         1 <0>         0.0878
     55 H21        -2.4949   -2.3296   11.0260 H         1 <0>         0.0823
     56 H22        -1.2328   -1.0741   10.9618 H         1 <0>         0.0948
     57 H23        -2.9582   -0.7746    9.1727 H         1 <0>         0.1122
     58 H24        -1.3343   -1.0628    8.5013 H         1 <0>         0.0876
     59 H25        -3.0387   -2.4306    7.3278 H         1 <0>         0.1270
     60 H26        -3.5075   -3.1737    8.8752 H         1 <0>         0.1304
     61 H27        -3.3092   -0.6023    2.0595 H         1 <0>         0.1237
     62 H28        -5.4396    0.6184    2.1759 H         1 <0>         0.1285
     63 H29        -4.7948    2.1484   -1.7643 H         1 <0>         0.1338
     64 H30        -2.6561    0.9432   -1.8911 H         1 <0>         0.1302
     65 H31        -6.3477    3.0245    0.6420 H         1 <0>         0.3942
     66 H32        -0.8266   -3.2941    7.6897 H         1 <0>         0.4292
@<TRIPOS>BOND
     1    1    2 1
     2    1   36 1
     3    1   37 1
     4    1   38 1
     5    2    8 1
     6    2    3 2
     7    3    4 1
     8    3   29 1
     9    4    5 1
    10    4    6 1
    11    4   14 1
    12    6    7 1
    13    7   12 ar
    14    7    8 ar
    15    8    9 ar
    16    9   10 ar
    17    9   39 1
    18   10   11 ar
    19   10   40 1
    20   11   12 ar
    21   11   13 1
    22   12   41 1
    23   13   42 1
    24   14   19 ar
    25   14   15 ar
    26   15   16 ar
    27   15   43 1
    28   16   17 ar
    29   16   44 1
    30   17   18 ar
    31   17   20 1
    32   18   19 ar
    33   18   45 1
    34   19   46 1
    35   20   21 1
    36   21   22 1
    37   21   47 1
    38   21   48 1
    39   22   23 1
    40   22   49 1
    41   22   50 1
    42   23   28 1
    43   23   24 1
    44   23   66 1
    45   24   25 1
    46   24   51 1
    47   24   52 1
    48   25   26 1
    49   25   53 1
    50   25   54 1
    51   26   27 1
    52   26   55 1
    53   26   56 1
    54   27   28 1
    55   27   57 1
    56   27   58 1
    57   28   59 1
    58   28   60 1
    59   29   34 ar
    60   29   30 ar
    61   30   31 ar
    62   30   61 1
    63   31   32 ar
    64   31   62 1
    65   32   33 ar
    66   32   35 1
    67   33   34 ar
    68   33   63 1
    69   34   64 1
    70   35   65 1
@<TRIPOS>MOLECULE
CHEMBL42018
   60    64     0     0     0
SMALL
USER_CHARGES

@<TRIPOS>ATOM
      1 C1          0.2587    1.2179    0.8050 C.ar      1 <0>        -0.0181
      2 C2          1.4022    1.9838    0.8501 C.ar      1 <0>        -0.1517
      3 C3          2.6481    1.3854    0.7024 C.ar      1 <0>         0.1502
      4 C4          2.7452    0.0124    0.5081 C.ar      1 <0>        -0.2136
      5 C5          1.6066   -0.7605    0.4617 C.ar      1 <0>        -0.0183
      6 C6          0.3521   -0.1628    0.6103 C.ar      1 <0>        -0.1890
      7 C7         -0.8715   -0.9880    0.5617 C.2       1 <0>         0.4583
      8 O1         -1.9663   -0.4564    0.6002 O.2       1 <0>        -0.4253
      9 C8         -0.7683   -2.4467    0.4672 C.2       1 <0>        -0.1501
     10 C9         -0.8087   -3.2849    1.6668 C.ar      1 <0>        -0.0782
     11 C10        -0.9416   -2.8779    3.0141 C.ar      1 <0>        -0.0577
     12 C11        -0.9609   -3.7916    4.0208 C.ar      1 <0>        -0.1364
     13 C12        -0.8513   -5.1556    3.7634 C.ar      1 <0>         0.1431
     14 C13        -0.7200   -5.5913    2.4548 C.ar      1 <0>        -0.1016
     15 C14        -0.6994   -4.6687    1.4294 C.ar      1 <0>        -0.0990
     16 S1         -0.5510   -4.8028   -0.3335 S.3       1 <0>         0.1125
     17 C15        -0.6352   -3.0753   -0.7620 C.2       1 <0>        -0.0713
     18 C16        -0.5752   -2.4606   -2.1031 C.ar      1 <0>         0.0238
     19 C17        -0.7799   -1.0856   -2.2748 C.ar      1 <0>        -0.1592
     20 C18        -0.7148   -0.5537   -3.5461 C.ar      1 <0>         0.1127
     21 N1         -0.4645   -1.3209   -4.5897 N.ar      1 <0>        -0.4736
     22 C19        -0.2657   -2.6197   -4.4730 C.ar      1 <0>         0.1119
     23 C20        -0.3063   -3.2350   -3.2389 C.ar      1 <0>        -0.1518
     24 O2         -0.8725   -6.0508    4.7860 O.3       1 <0>        -0.4904
     25 O3          3.7727    2.1438    0.7475 O.3       1 <0>        -0.3230
     26 C21         5.0230    1.4533    0.7025 C.3       1 <0>         0.0225
     27 C22         6.1677    2.4667    0.7634 C.3       1 <0>        -0.0011
     28 N2          6.1453    3.1533    2.0618 N.4       1 <0>        -0.3846
     29 C23         7.1413    4.2315    2.0608 C.3       1 <0>        -0.0072
     30 C24         7.0663    5.0017    3.3809 C.3       1 <0>        -0.1467
     31 C25         7.3500    4.0436    4.5414 C.3       1 <0>        -0.1391
     32 C26         6.3515    2.8837    4.4886 C.3       1 <0>        -0.1454
     33 C27         6.4530    2.1920    3.1275 C.3       1 <0>        -0.0138
     34 H1         -0.7087    1.6830    0.9243 H         1 <0>         0.1499
     35 H2          1.3309    3.0510    1.0002 H         1 <0>         0.1432
     36 H3          3.7151   -0.4486    0.3930 H         1 <0>         0.1356
     37 H4          1.6829   -1.8271    0.3104 H         1 <0>         0.1364
     38 H5         -1.0287   -1.8269    3.2469 H         1 <0>         0.1281
     39 H6         -1.0628   -3.4523    5.0410 H         1 <0>         0.1402
     40 H7         -0.6336   -6.6460    2.2390 H         1 <0>         0.1451
     41 H8         -0.9859   -0.4516   -1.4251 H         1 <0>         0.1351
     42 H9         -0.8711    0.5053   -3.6889 H         1 <0>         0.1631
     43 H10        -0.0639   -3.2089   -5.3554 H         1 <0>         0.1670
     44 H11        -0.1376   -4.2980   -3.1503 H         1 <0>         0.1419
     45 H12        -1.7575   -6.3674    5.0132 H         1 <0>         0.4014
     46 H13         5.0937    0.7739    1.5519 H         1 <0>         0.0896
     47 H14         5.0906    0.8841   -0.2246 H         1 <0>         0.1124
     48 H15         7.1189    1.9481    0.6431 H         1 <0>         0.1506
     49 H16         6.0488    3.1977   -0.0363 H         1 <0>         0.1440
     50 H17         8.1378    3.8049    1.9457 H         1 <0>         0.1296
     51 H18         6.9400    4.9107    1.2324 H         1 <0>         0.1315
     52 H19         7.8078    5.8006    3.3788 H         1 <0>         0.1135
     53 H20         6.0703    5.4290    3.4968 H         1 <0>         0.0881
     54 H21         8.3647    3.6553    4.4537 H         1 <0>         0.0823
     55 H22         7.2422    4.5746    5.4871 H         1 <0>         0.0950
     56 H23         6.5821    2.1687    5.2783 H         1 <0>         0.1126
     57 H24         5.3406    3.2670    4.6276 H         1 <0>         0.0879
     58 H25         5.7435    1.3655    3.0866 H         1 <0>         0.1270
     59 H26         7.4641    1.8088    2.9896 H         1 <0>         0.1309
     60 H27         5.2287    3.5452    2.2181 H         1 <0>         0.4290
@<TRIPOS>BOND
     1    1    6 ar
     2    1    2 ar
     3    1   34 1
     4    2    3 ar
     5    2   35 1
     6    3    4 ar
     7    3   25 1
     8    4    5 ar
     9    4   36 1
    10    5    6 ar
    11    5   37 1
    12    6    7 1
    13    7    8 2
    14    7    9 1
    15    9   17 2
    16    9   10 1
    17   10   15 ar
    18   10   11 ar
    19   11   12 ar
    20   11   38 1
    21   12   13 ar
    22   12   39 1
    23   13   14 ar
    24   13   24 1
    25   14   15 ar
    26   14   40 1
    27   15   16 1
    28   16   17 1
    29   17   18 1
    30   18   23 ar
    31   18   19 ar
    32   19   20 ar
    33   19   41 1
    34   20   21 ar
    35   20   42 1
    36   21   22 ar
    37   22   23 ar
    38   22   43 1
    39   23   44 1
    40   24   45 1
    41   25   26 1
    42   26   27 1
    43   26   46 1
    44   26   47 1
    45   27   28 1
    46   27   48 1
    47   27   49 1
    48   28   33 1
    49   28   29 1
    50   28   60 1
    51   29   30 1
    52   29   50 1
    53   29   51 1
    54   30   31 1
    55   30   52 1
    56   30   53 1
    57   31   32 1
    58   31   54 1
    59   31   55 1
    60   32   33 1
    61   32   56 1
    62   32   57 1
    63   33   58 1
    64   33   59 1
@<TRIPOS>MOLECULE
CHEMBL361751
   63    67     0     0     0
SMALL
USER_CHARGES

@<TRIPOS>ATOM
      1 C1          1.1631   -0.6117   -0.4390 C.ar      1 <0>        -0.0882
      2 C2          2.3518    0.0921   -0.4484 C.ar      1 <0>        -0.1397
      3 C3          2.3800    1.4096   -0.0147 C.ar      1 <0>         0.1152
      4 C4          1.2137    2.0170    0.4273 C.ar      1 <0>        -0.1451
      5 C5          0.0275    1.3089    0.4346 C.ar      1 <0>        -0.0824
      6 C6          0.0021   -0.0041    0.0020 C.ar      1 <0>        -0.0895
      7 C7         -1.2934   -0.7740    0.0107 C.3       1 <0>        -0.0632
      8 H1         -2.1334   -0.0869    0.1120 H         1 <0>         0.1384
      9 C8         -1.2969   -1.7821    1.1721 C.3       1 <0>         0.1520
     10 H2         -2.1779   -2.4197    1.0986 H         1 <0>         0.0949
     11 O1         -0.1255   -2.5802    1.0967 O.3       1 <0>        -0.3045
     12 C9          0.1551   -3.3416    0.0132 C.ar      1 <0>         0.1225
     13 C10         0.9986   -4.4351    0.1946 C.ar      1 <0>        -0.1149
     14 C11         1.3394   -5.2447   -0.8692 C.ar      1 <0>        -0.1065
     15 C12         0.8443   -4.9772   -2.1372 C.ar      1 <0>         0.0968
     16 C13        -0.0005   -3.8960   -2.3286 C.ar      1 <0>        -0.0900
     17 C14        -0.3494   -3.0850   -1.2568 C.ar      1 <0>        -0.1474
     18 S1         -1.4568   -1.7323   -1.5285 S.3       1 <0>        -0.0868
     19 O2          1.1866   -5.7716   -3.1864 O.3       1 <0>        -0.4917
     20 C15        -1.3198   -1.0400    2.4835 C.ar      1 <0>        -0.1129
     21 C16        -0.1522   -0.5024    2.9927 C.ar      1 <0>        -0.0343
     22 C17        -0.1704    0.1779    4.1949 C.ar      1 <0>        -0.1457
     23 C18        -1.3617    0.3218    4.8912 C.ar      1 <0>         0.1325
     24 C19        -2.5320   -0.2182    4.3779 C.ar      1 <0>        -0.2081
     25 C20        -2.5094   -0.8931    3.1727 C.ar      1 <0>        -0.0596
     26 O3         -1.3822    0.9902    6.0743 O.3       1 <0>        -0.3118
     27 C21        -2.6441    1.0995    6.7359 C.3       1 <0>         0.0624
     28 C22        -2.4698    1.8785    8.0411 C.3       1 <0>        -0.1499
     29 C23        -3.8208    1.9956    8.7495 C.3       1 <0>        -0.0012
     30 N1         -3.6535    2.7436   10.0027 N.4       1 <0>        -0.3936
     31 C24        -3.3333    4.1646    9.7122 C.3       1 <0>        -0.0090
     32 C25        -3.7423    4.8940   11.0165 C.3       1 <0>        -0.1458
     33 C26        -5.0169    4.1350   11.4518 C.3       1 <0>        -0.1456
     34 C27        -4.9245    2.7631   10.7586 C.3       1 <0>        -0.0082
     35 O4          3.5482    2.1039   -0.0225 O.3       1 <0>        -0.4995
     36 H3          1.1398   -1.6359   -0.7807 H         1 <0>         0.1316
     37 H4          3.2585   -0.3831   -0.7926 H         1 <0>         0.1308
     38 H5          1.2331    3.0424    0.7657 H         1 <0>         0.1302
     39 H6         -0.8807    1.7813    0.7787 H         1 <0>         0.1244
     40 H7          1.3899   -4.6512    1.1778 H         1 <0>         0.1411
     41 H8          1.9942   -6.0894   -0.7144 H         1 <0>         0.1423
     42 H9         -0.3883   -3.6831   -3.3139 H         1 <0>         0.1400
     43 H10         0.5878   -6.5179   -3.3264 H         1 <0>         0.3938
     44 H11         0.7750   -0.6147    2.4504 H         1 <0>         0.1368
     45 H12         0.7420    0.5970    4.5927 H         1 <0>         0.1347
     46 H13        -3.4607   -0.1075    4.9180 H         1 <0>         0.1292
     47 H14        -3.4210   -1.3098    2.7705 H         1 <0>         0.1319
     48 H15        -3.3483    1.6246    6.0906 H         1 <0>         0.0726
     49 H16        -3.0265    0.1028    6.9560 H         1 <0>         0.0731
     50 H17        -1.7655    1.3535    8.6864 H         1 <0>         0.0989
     51 H18        -2.0873    2.8753    7.8210 H         1 <0>         0.0984
     52 H19        -4.5251    2.5207    8.1042 H         1 <0>         0.1330
     53 H20        -4.2032    0.9989    8.9696 H         1 <0>         0.1337
     54 H21        -2.2673    4.2874    9.5208 H         1 <0>         0.1364
     55 H22        -3.9209    4.5266    8.8685 H         1 <0>         0.1344
     56 H23        -2.9615    4.8014   11.7713 H         1 <0>         0.0987
     57 H24        -3.9663    5.9421   10.8183 H         1 <0>         0.1173
     58 H25        -5.0323    4.0115   12.5347 H         1 <0>         0.1058
     59 H26        -5.9072    4.6682   11.1184 H         1 <0>         0.1042
     60 H27        -5.7646    2.6346   10.0760 H         1 <0>         0.1311
     61 H28        -4.9247    1.9690   11.5053 H         1 <0>         0.1332
     62 H29         3.7178    2.5792   -0.8474 H         1 <0>         0.3946
     63 H30        -2.9228    2.3285   10.5612 H         1 <0>         0.4284
@<TRIPOS>BOND
     1    1    6 ar
     2    1    2 ar
     3    1   36 1
     4    2    3 ar
     5    2   37 1
     6    3    4 ar
     7    3   35 1
     8    4    5 ar
     9    4   38 1
    10    5    6 ar
    11    5   39 1
    12    6    7 1
    13    7    8 1
    14    7   18 1
    15    7    9 1
    16    9   10 1
    17    9   11 1
    18    9   20 1
    19   11   12 1
    20   12   17 ar
    21   12   13 ar
    22   13   14 ar
    23   13   40 1
    24   14   15 ar
    25   14   41 1
    26   15   16 ar
    27   15   19 1
    28   16   17 ar
    29   16   42 1
    30   17   18 1
    31   19   43 1
    32   20   25 ar
    33   20   21 ar
    34   21   22 ar
    35   21   44 1
    36   22   23 ar
    37   22   45 1
    38   23   24 ar
    39   23   26 1
    40   24   25 ar
    41   24   46 1
    42   25   47 1
    43   26   27 1
    44   27   28 1
    45   27   48 1
    46   27   49 1
    47   28   29 1
    48   28   50 1
    49   28   51 1
    50   29   30 1
    51   29   52 1
    52   29   53 1
    53   30   34 1
    54   30   31 1
    55   30   63 1
    56   31   32 1
    57   31   54 1
    58   31   55 1
    59   32   33 1
    60   32   56 1
    61   32   57 1
    62   33   34 1
    63   33   58 1
    64   33   59 1
    65   34   60 1
    66   34   61 1
    67   35   62 1
@<TRIPOS>MOLECULE
CHEMBL93391
   56    59     0     0     0
SMALL
USER_CHARGES

@<TRIPOS>ATOM
      1 C1         -0.0276    1.4853   -4.6736 C.3       1 <0>         0.0846
      2 N1         -0.0083    0.0205   -4.6802 N.am      1 <0>        -0.6223
      3 C2          0.0072   -0.7061   -5.9523 C.3       1 <0>         0.0773
      4 C3         -0.0049   -0.6587   -3.5161 C.2       1 <0>         0.5485
      5 O1         -0.0179   -0.0549   -2.4592 O.2       1 <0>        -0.5486
      6 C4          0.0143   -2.1205   -3.5227 C.2       1 <0>        -0.2432
      7 C5          0.0177   -2.8010   -2.3563 C.2       1 <0>         0.0074
      8 C6          0.0370   -4.2701   -2.3629 C.ar      1 <0>        -0.1458
      9 C7          0.0577   -4.9665   -3.5776 C.ar      1 <0>        -0.0427
     10 C8          0.0762   -6.3374   -3.5792 C.ar      1 <0>        -0.2023
     11 C9          0.0743   -7.0372   -2.3754 C.ar      1 <0>         0.2454
     12 C10         0.0532   -6.3486   -1.1653 C.ar      1 <0>        -0.2024
     13 C11         0.0405   -4.9777   -1.1546 C.ar      1 <0>        -0.0370
     14 N2          0.0930   -8.4282   -2.3817 N.pl3     1 <0>        -0.6108
     15 C12         0.2135   -9.1979   -1.1324 C.3       1 <0>         0.1078
     16 C13        -1.0740   -9.9999   -0.9492 C.3       1 <0>        -0.1014
     17 C14        -1.4485  -10.7111   -2.2229 C.ar      1 <0>        -0.0481
     18 C15        -2.3144  -11.7926   -2.1246 C.ar      1 <0>        -0.1471
     19 C16        -2.7073  -12.4843   -3.2572 C.ar      1 <0>         0.1123
     20 C17        -2.2327  -12.0929   -4.5010 C.ar      1 <0>        -0.1445
     21 C18        -1.3702  -11.0217   -4.5960 C.ar      1 <0>        -0.0873
     22 C19        -0.9724  -10.3317   -3.4582 C.ar      1 <0>        -0.0970
     23 C20        -0.0125   -9.1868   -3.6326 C.3       1 <0>         0.2358
     24 C21         1.3433   -9.7278   -4.0068 C.ar      1 <0>        -0.0957
     25 C22         1.9736   -9.2809   -5.1531 C.ar      1 <0>        -0.1061
     26 C23         3.2173   -9.7772   -5.4963 C.ar      1 <0>        -0.1175
     27 C24         3.8309  -10.7202   -4.6930 C.ar      1 <0>        -0.1144
     28 C25         3.2010  -11.1664   -3.5463 C.ar      1 <0>        -0.1192
     29 C26         1.9593  -10.6669   -3.2008 C.ar      1 <0>        -0.1027
     30 O2         -3.5536  -13.5423   -3.1516 O.3       1 <0>        -0.4989
     31 H1         -1.0599    1.8352   -4.6769 H         1 <0>         0.0548
     32 H2          0.4773    1.8513   -3.7796 H         1 <0>         0.0771
     33 H3          0.4856    1.8594   -5.5595 H         1 <0>         0.0694
     34 H4          1.0387   -0.8729   -6.2629 H         1 <0>         0.0578
     35 H5         -0.4946   -1.6658   -5.8287 H         1 <0>         0.0747
     36 H6         -0.5107   -0.1204   -6.7117 H         1 <0>         0.0725
     37 H7          0.0257   -2.6562   -4.4604 H         1 <0>         0.1289
     38 H8          0.0062   -2.2654   -1.4186 H         1 <0>         0.1316
     39 H9          0.0588   -4.4246   -4.5117 H         1 <0>         0.1253
     40 H10         0.0918   -6.8753   -4.5156 H         1 <0>         0.1229
     41 H11         0.0511   -6.8952   -0.2339 H         1 <0>         0.1271
     42 H12         0.0287   -4.4444   -0.2155 H         1 <0>         0.1279
     43 H13         1.0643   -9.8760   -1.1976 H         1 <0>         0.0794
     44 H14         0.3469   -8.5174   -0.2914 H         1 <0>         0.0944
     45 H15        -0.9287  -10.7350   -0.1576 H         1 <0>         0.0884
     46 H16        -1.8804   -9.3236   -0.6657 H         1 <0>         0.0854
     47 H17        -2.6845  -12.0962   -1.1565 H         1 <0>         0.1293
     48 H18        -2.5377  -12.6246   -5.3902 H         1 <0>         0.1313
     49 H19        -1.0007  -10.7162   -5.5637 H         1 <0>         0.1274
     50 H20        -0.3718   -8.5307   -4.4254 H         1 <0>         0.1052
     51 H21         1.4942   -8.5442   -5.7806 H         1 <0>         0.1213
     52 H22         3.7094   -9.4285   -6.3922 H         1 <0>         0.1240
     53 H23         4.8023  -11.1084   -4.9616 H         1 <0>         0.1227
     54 H24         3.6803  -11.9034   -2.9189 H         1 <0>         0.1225
     55 H25         1.4688  -11.0129   -2.3029 H         1 <0>         0.1223
     56 H26        -4.4891  -13.3053   -3.2132 H         1 <0>         0.3925
@<TRIPOS>BOND
     1    1    2 1
     2    1   31 1
     3    1   32 1
     4    1   33 1
     5    2    3 1
     6    2    4 am
     7    3   34 1
     8    3   35 1
     9    3   36 1
    10    4    5 2
    11    4    6 1
    12    6    7 2
    13    6   37 1
    14    7    8 1
    15    7   38 1
    16    8   13 ar
    17    8    9 ar
    18    9   10 ar
    19    9   39 1
    20   10   11 ar
    21   10   40 1
    22   11   12 ar
    23   11   14 1
    24   12   13 ar
    25   12   41 1
    26   13   42 1
    27   14   23 1
    28   14   15 1
    29   15   16 1
    30   15   43 1
    31   15   44 1
    32   16   17 1
    33   16   45 1
    34   16   46 1
    35   17   22 ar
    36   17   18 ar
    37   18   19 ar
    38   18   47 1
    39   19   20 ar
    40   19   30 1
    41   20   21 ar
    42   20   48 1
    43   21   22 ar
    44   21   49 1
    45   22   23 1
    46   23   24 1
    47   23   50 1
    48   24   29 ar
    49   24   25 ar
    50   25   26 ar
    51   25   51 1
    52   26   27 ar
    53   26   52 1
    54   27   28 ar
    55   27   53 1
    56   28   29 ar
    57   28   54 1
    58   29   55 1
    59   30   56 1
@<TRIPOS>MOLECULE
CHEMBL93391__1
   56    59     0     0     0
SMALL
USER_CHARGES

@<TRIPOS>ATOM
      1 C1         -0.2089    1.1650   -6.4228 C.3       1 <0>         0.0846
      2 N1         -0.2197   -0.2804   -6.1838 N.am      1 <0>        -0.6223
      3 C2         -0.3893   -1.2070   -7.3058 C.3       1 <0>         0.0773
      4 C3         -0.0737   -0.7575   -4.9319 C.2       1 <0>         0.5485
      5 O1          0.0672    0.0125   -3.9996 O.2       1 <0>        -0.5486
      6 C4         -0.0845   -2.1999   -4.6934 C.2       1 <0>        -0.2432
      7 C5          0.0619   -2.6780   -3.4389 C.2       1 <0>         0.0074
      8 C6          0.0511   -4.1275   -3.1993 C.ar      1 <0>        -0.1456
      9 C7         -0.1051   -5.0152   -4.2710 C.ar      1 <0>        -0.0427
     10 C8         -0.1142   -6.3670   -4.0430 C.ar      1 <0>        -0.2022
     11 C9          0.0316   -6.8577   -2.7481 C.ar      1 <0>         0.2450
     12 C10         0.1867   -5.9785   -1.6795 C.ar      1 <0>        -0.2022
     13 C11         0.2027   -4.6254   -1.8993 C.ar      1 <0>        -0.0370
     14 N2          0.0218   -8.2302   -2.5212 N.pl3     1 <0>        -0.6113
     15 C12         0.0393   -8.7807   -1.1558 C.3       1 <0>         0.1081
     16 C13         1.3444   -9.5550   -0.9785 C.3       1 <0>        -0.1014
     17 C14         1.5873  -10.4716   -2.1486 C.ar      1 <0>        -0.0477
     18 C15         2.4662  -11.5311   -1.9638 C.ar      1 <0>        -0.1473
     19 C16         2.7413  -12.4058   -3.0005 C.ar      1 <0>         0.1123
     20 C17         2.1353  -12.2211   -4.2351 C.ar      1 <0>        -0.1447
     21 C18         1.2610  -11.1707   -4.4156 C.ar      1 <0>        -0.0875
     22 C19         0.9807  -10.2973   -3.3727 C.ar      1 <0>        -0.0968
     23 C20        -0.0125   -9.1868   -3.6326 C.3       1 <0>         0.2357
     24 C21        -1.3986   -9.7656   -3.7534 C.ar      1 <0>        -0.0952
     25 C22        -2.1594   -9.5083   -4.8786 C.ar      1 <0>        -0.1058
     26 C23        -3.4309  -10.0392   -4.9894 C.ar      1 <0>        -0.1172
     27 C24        -3.9415  -10.8278   -3.9753 C.ar      1 <0>        -0.1145
     28 C25        -3.1804  -11.0858   -2.8506 C.ar      1 <0>        -0.1196
     29 C26        -1.9072  -10.5584   -2.7417 C.ar      1 <0>        -0.1032
     30 O2          3.6007  -13.4412   -2.8101 O.3       1 <0>        -0.4988
     31 H1         -1.2252    1.5526   -6.3521 H         1 <0>         0.0548
     32 H2          0.4184    1.6520   -5.6762 H         1 <0>         0.0771
     33 H3          0.1881    1.3658   -7.4179 H         1 <0>         0.0695
     34 H4          0.5876   -1.4660   -7.7140 H         1 <0>         0.0578
     35 H5         -0.8890   -2.1112   -6.9579 H         1 <0>         0.0747
     36 H6         -0.9928   -0.7335   -8.0801 H         1 <0>         0.0725
     37 H7         -0.2095   -2.8830   -5.5205 H         1 <0>         0.1289
     38 H8          0.1869   -1.9948   -2.6119 H         1 <0>         0.1316
     39 H9         -0.2186   -4.6354   -5.2756 H         1 <0>         0.1254
     40 H10        -0.2349   -7.0524   -4.8689 H         1 <0>         0.1228
     41 H11         0.2987   -6.3633   -0.6766 H         1 <0>         0.1271
     42 H12         0.3274   -3.9443   -1.0705 H         1 <0>         0.1279
     43 H13        -0.0093   -7.9688   -0.4302 H         1 <0>         0.0941
     44 H14        -0.8090   -9.4511   -1.0175 H         1 <0>         0.0792
     45 H15         2.1716   -8.8498   -0.8978 H         1 <0>         0.0856
     46 H16         1.2887  -10.1470   -0.0649 H         1 <0>         0.0881
     47 H17         2.9385  -11.6738   -1.0031 H         1 <0>         0.1294
     48 H18         2.3479  -12.8966   -5.0505 H         1 <0>         0.1313
     49 H19         0.7898  -11.0256   -5.3764 H         1 <0>         0.1274
     50 H20         0.2484   -8.6755   -4.5593 H         1 <0>         0.1054
     51 H21        -1.7605   -8.8922   -5.6709 H         1 <0>         0.1215
     52 H22        -4.0256   -9.8376   -5.8681 H         1 <0>         0.1241
     53 H23        -4.9351  -11.2420   -4.0616 H         1 <0>         0.1226
     54 H24        -3.5794  -11.7016   -2.0582 H         1 <0>         0.1223
     55 H25        -1.3111  -10.7631   -1.8646 H         1 <0>         0.1224
     56 H26         3.1759  -14.2532   -2.5014 H         1 <0>         0.3923
@<TRIPOS>BOND
     1    1    2 1
     2    1   31 1
     3    1   32 1
     4    1   33 1
     5    2    3 1
     6    2    4 am
     7    3   34 1
     8    3   35 1
     9    3   36 1
    10    4    5 2
    11    4    6 1
    12    6    7 2
    13    6   37 1
    14    7    8 1
    15    7   38 1
    16    8   13 ar
    17    8    9 ar
    18    9   10 ar
    19    9   39 1
    20   10   11 ar
    21   10   40 1
    22   11   12 ar
    23   11   14 1
    24   12   13 ar
    25   12   41 1
    26   13   42 1
    27   14   23 1
    28   14   15 1
    29   15   16 1
    30   15   43 1
    31   15   44 1
    32   16   17 1
    33   16   45 1
    34   16   46 1
    35   17   22 ar
    36   17   18 ar
    37   18   19 ar
    38   18   47 1
    39   19   20 ar
    40   19   30 1
    41   20   21 ar
    42   20   48 1
    43   21   22 ar
    44   21   49 1
    45   22   23 1
    46   23   24 1
    47   23   50 1
    48   24   29 ar
    49   24   25 ar
    50   25   26 ar
    51   25   51 1
    52   26   27 ar
    53   26   52 1
    54   27   28 ar
    55   27   53 1
    56   28   29 ar
    57   28   54 1
    58   29   55 1
    59   30   56 1
@<TRIPOS>MOLECULE
CHEMBL89995
   51    54     0     0     0
SMALL
USER_CHARGES

@<TRIPOS>ATOM
      1 C1          0.5866    1.9626   -0.2612 C.ar      1 <0>        -0.1429
      2 C2          0.7937    1.1476    0.8366 C.ar      1 <0>        -0.0989
      3 C3          1.8910    0.3101    0.8796 C.ar      1 <0>        -0.1503
      4 C4          2.7871    0.2870   -0.1816 C.ar      1 <0>         0.1974
      5 C5          2.5760    1.1070   -1.2828 C.ar      1 <0>        -0.1476
      6 C6          1.4767    1.9422   -1.3192 C.ar      1 <0>        -0.0991
      7 N1          3.8982   -0.5584   -0.1412 N.pl3     1 <0>        -0.6545
      8 C7          5.2671   -0.0300   -0.2616 C.3       1 <0>         0.1385
      9 C8          5.9944   -0.3063    1.0534 C.3       1 <0>        -0.1002
     10 C9          5.7879   -1.7327    1.4909 C.ar      1 <0>        -0.0464
     11 C10         6.6946   -2.2643    2.3988 C.ar      1 <0>        -0.1485
     12 C11         6.5572   -3.5655    2.8500 C.ar      1 <0>         0.1061
     13 C12         5.5042   -4.3445    2.3920 C.ar      1 <0>        -0.1464
     14 C13         4.6077   -3.8162    1.4878 C.ar      1 <0>        -0.0967
     15 C14         4.7497   -2.5122    1.0315 C.ar      1 <0>        -0.0978
     16 C15         3.7482   -2.0075    0.0290 C.3       1 <0>         0.2104
     17 C16         3.9825   -2.7046   -1.3127 C.3       1 <0>        -0.1224
     18 C17         2.8793   -2.3050   -2.2946 C.3       1 <0>        -0.0838
     19 C18         1.5346   -2.8372   -1.7951 C.3       1 <0>        -0.1132
     20 C19         0.4314   -2.4375   -2.7770 C.3       1 <0>        -0.1172
     21 C20         0.7350   -3.0309   -4.1542 C.3       1 <0>        -0.1195
     22 C21         2.0797   -2.4987   -4.6537 C.3       1 <0>        -0.1185
     23 C22         3.1829   -2.8983   -3.6718 C.3       1 <0>        -0.1131
     24 O1          7.4499   -4.0781    3.7373 O.3       1 <0>        -0.4999
     25 H1         -0.2748    2.6133   -0.2942 H         1 <0>         0.1187
     26 H2          0.0968    1.1663    1.6614 H         1 <0>         0.1195
     27 H3          2.0524   -0.3259    1.7374 H         1 <0>         0.1170
     28 H4          3.2710    1.0918   -2.1093 H         1 <0>         0.1188
     29 H5          1.3120    2.5800   -2.1751 H         1 <0>         0.1198
     30 H6          5.7843   -0.5291   -1.0810 H         1 <0>         0.0618
     31 H7          5.2331    1.0438   -0.4456 H         1 <0>         0.0792
     32 H8          7.0604   -0.1234    0.9188 H         1 <0>         0.0816
     33 H9          5.6108    0.3637    1.8228 H         1 <0>         0.0798
     34 H10         7.5133   -1.6573    2.7560 H         1 <0>         0.1265
     35 H11         5.3879   -5.3597    2.7418 H         1 <0>         0.1289
     36 H12         3.7876   -4.4218    1.1311 H         1 <0>         0.1262
     37 H13         2.7406   -2.2290    0.3808 H         1 <0>         0.0905
     38 H14         4.9512   -2.4056   -1.7132 H         1 <0>         0.0657
     39 H15         3.9667   -3.7849   -1.1685 H         1 <0>         0.0690
     40 H16         2.8351   -1.2184   -2.3688 H         1 <0>         0.0794
     41 H17         1.5789   -3.9237   -1.7209 H         1 <0>         0.0584
     42 H18         1.3184   -2.4145   -0.8140 H         1 <0>         0.0591
     43 H19        -0.5265   -2.8167   -2.4212 H         1 <0>         0.0582
     44 H20         0.3872   -1.3510   -2.8513 H         1 <0>         0.0609
     45 H21         0.7792   -4.1175   -4.0800 H         1 <0>         0.0596
     46 H22        -0.0510   -2.7462   -4.8538 H         1 <0>         0.0587
     47 H23         2.2959   -2.9214   -5.6349 H         1 <0>         0.0590
     48 H24         2.0354   -1.4121   -4.7280 H         1 <0>         0.0598
     49 H25         4.1408   -2.5191   -4.0277 H         1 <0>         0.0582
     50 H26         3.2271   -3.9849   -3.5976 H         1 <0>         0.0593
     51 H27         7.2068   -3.9414    4.6632 H         1 <0>         0.3908
@<TRIPOS>BOND
     1    1    6 ar
     2    1    2 ar
     3    1   25 1
     4    2    3 ar
     5    2   26 1
     6    3    4 ar
     7    3   27 1
     8    4    5 ar
     9    4    7 1
    10    5    6 ar
    11    5   28 1
    12    6   29 1
    13    7   16 1
    14    7    8 1
    15    8    9 1
    16    8   30 1
    17    8   31 1
    18    9   10 1
    19    9   32 1
    20    9   33 1
    21   10   15 ar
    22   10   11 ar
    23   11   12 ar
    24   11   34 1
    25   12   13 ar
    26   12   24 1
    27   13   14 ar
    28   13   35 1
    29   14   15 ar
    30   14   36 1
    31   15   16 1
    32   16   17 1
    33   16   37 1
    34   17   18 1
    35   17   38 1
    36   17   39 1
    37   18   23 1
    38   18   19 1
    39   18   40 1
    40   19   20 1
    41   19   41 1
    42   19   42 1
    43   20   21 1
    44   20   43 1
    45   20   44 1
    46   21   22 1
    47   21   45 1
    48   21   46 1
    49   22   23 1
    50   22   47 1
    51   22   48 1
    52   23   49 1
    53   23   50 1
    54   24   51 1
@<TRIPOS>MOLECULE
CHEMBL89995__1
   51    54     0     0     0
SMALL
USER_CHARGES

@<TRIPOS>ATOM
      1 C1         -0.6738    0.9200    0.0457 C.ar      1 <0>        -0.1447
      2 C2          0.3137    1.4547    0.8527 C.ar      1 <0>        -0.0973
      3 C3          1.6091    0.9840    0.7654 C.ar      1 <0>        -0.1540
      4 C4          1.9196   -0.0278   -0.1343 C.ar      1 <0>         0.2085
      5 C5          0.9252   -0.5627   -0.9435 C.ar      1 <0>        -0.1521
      6 C6         -0.3681   -0.0873   -0.8511 C.ar      1 <0>        -0.0969
      7 N1          3.2288   -0.5060   -0.2255 N.pl3     1 <0>        -0.6565
      8 C7          4.3599    0.4026   -0.4758 C.3       1 <0>         0.1382
      9 C8          5.2694    0.3692    0.7514 C.3       1 <0>        -0.1010
     10 C9          5.5406   -1.0492    1.1793 C.ar      1 <0>        -0.0542
     11 C10         6.6535   -1.2781    1.9783 C.ar      1 <0>        -0.1462
     12 C11         6.9548   -2.5563    2.4152 C.ar      1 <0>         0.1043
     13 C12         6.1373   -3.6174    2.0527 C.ar      1 <0>        -0.1440
     14 C13         5.0355   -3.3886    1.2565 C.ar      1 <0>        -0.0974
     15 C14         4.7372   -2.1064    0.8140 C.ar      1 <0>        -0.0791
     16 C15         3.5324   -1.9325   -0.0697 C.3       1 <0>         0.2089
     17 C16         2.3328   -2.6423    0.5611 C.3       1 <0>        -0.1271
     18 C17         1.9672   -1.9539    1.8777 C.3       1 <0>        -0.0958
     19 C18         3.0468   -2.2445    2.9221 C.3       1 <0>        -0.1294
     20 C19         2.6812   -1.5561    4.2387 C.3       1 <0>        -0.1158
     21 C20         1.3350   -2.0872    4.7353 C.3       1 <0>        -0.1189
     22 C21         0.2554   -1.7965    3.6908 C.3       1 <0>        -0.1158
     23 C22         0.6210   -2.4849    2.3743 C.3       1 <0>        -0.1105
     24 O1          8.0465   -2.7713    3.1954 O.3       1 <0>        -0.4998
     25 H1         -1.6869    1.2868    0.1191 H         1 <0>         0.1181
     26 H2          0.0717    2.2416    1.5517 H         1 <0>         0.1190
     27 H3          2.3799    1.4023    1.3957 H         1 <0>         0.1175
     28 H4          1.1633   -1.3492   -1.6443 H         1 <0>         0.1193
     29 H5         -1.1417   -0.5027   -1.4799 H         1 <0>         0.1196
     30 H6          4.9131    0.0695   -1.3540 H         1 <0>         0.0646
     31 H7          3.9910    1.4160   -0.6340 H         1 <0>         0.0805
     32 H8          6.2137    0.8579    0.5113 H         1 <0>         0.0811
     33 H9          4.7875    0.9045    1.5695 H         1 <0>         0.0784
     34 H10         7.2888   -0.4518    2.2611 H         1 <0>         0.1259
     35 H11         6.3630   -4.6172    2.3930 H         1 <0>         0.1280
     36 H12         4.3985   -4.2139    0.9742 H         1 <0>         0.1271
     37 H13         3.7380   -2.3684   -1.0473 H         1 <0>         0.0705
     38 H14         1.4837   -2.5965   -0.1209 H         1 <0>         0.0762
     39 H15         2.5876   -3.6843    0.7545 H         1 <0>         0.0737
     40 H16         1.8967   -0.8780    1.7177 H         1 <0>         0.0972
     41 H17         3.1173   -3.3204    3.0821 H         1 <0>         0.0530
     42 H18         4.0058   -1.8662    2.5683 H         1 <0>         0.0842
     43 H19         3.4503   -1.7632    4.9827 H         1 <0>         0.0536
     44 H20         2.6107   -0.4802    4.0787 H         1 <0>         0.0557
     45 H21         1.4055   -3.1631    4.8952 H         1 <0>         0.0580
     46 H22         1.0746   -1.5967    5.6732 H         1 <0>         0.0563
     47 H23        -0.7036   -2.1748    4.0446 H         1 <0>         0.0570
     48 H24         0.1849   -0.7206    3.5309 H         1 <0>         0.0596
     49 H25        -0.1481   -2.2779    1.6302 H         1 <0>         0.0578
     50 H26         0.6915   -3.5608    2.5342 H         1 <0>         0.0549
     51 H27         7.8719   -2.7021    4.1439 H         1 <0>         0.3901
@<TRIPOS>BOND
     1    1    6 ar
     2    1    2 ar
     3    1   25 1
     4    2    3 ar
     5    2   26 1
     6    3    4 ar
     7    3   27 1
     8    4    5 ar
     9    4    7 1
    10    5    6 ar
    11    5   28 1
    12    6   29 1
    13    7   16 1
    14    7    8 1
    15    8    9 1
    16    8   30 1
    17    8   31 1
    18    9   10 1
    19    9   32 1
    20    9   33 1
    21   10   15 ar
    22   10   11 ar
    23   11   12 ar
    24   11   34 1
    25   12   13 ar
    26   12   24 1
    27   13   14 ar
    28   13   35 1
    29   14   15 ar
    30   14   36 1
    31   15   16 1
    32   16   17 1
    33   16   37 1
    34   17   18 1
    35   17   38 1
    36   17   39 1
    37   18   23 1
    38   18   19 1
    39   18   40 1
    40   19   20 1
    41   19   41 1
    42   19   42 1
    43   20   21 1
    44   20   43 1
    45   20   44 1
    46   21   22 1
    47   21   45 1
    48   21   46 1
    49   22   23 1
    50   22   47 1
    51   22   48 1
    52   23   49 1
    53   23   50 1
    54   24   51 1
@<TRIPOS>MOLECULE
CHEMBL380359
   33    35     0     0     0
SMALL
USER_CHARGES

@<TRIPOS>ATOM
      1 C1          0.5348    0.4461   -1.1987 C.ar      1 <0>        -0.0774
      2 C2          1.7208    1.1528   -1.2056 C.ar      1 <0>        -0.1352
      3 C3          2.3806    1.4129   -0.0131 C.ar      1 <0>         0.1277
      4 C4          1.8488    0.9634    1.1869 C.ar      1 <0>        -0.1351
      5 C5          0.6627    0.2569    1.1952 C.ar      1 <0>        -0.0772
      6 C6          0.0021   -0.0041    0.0020 C.ar      1 <0>         0.0874
      7 N1         -1.2021   -0.7217    0.0097 N.am      1 <0>        -0.5046
      8 C7         -2.3828   -0.0554    0.1219 C.2       1 <0>         0.3839
      9 N2         -3.5378   -0.6486    0.1360 N.2       1 <0>        -0.5141
     10 C8         -3.6450   -1.9975    0.0380 C.ar      1 <0>         0.1698
     11 C9         -4.8845   -2.6358    0.0519 C.ar      1 <0>        -0.1410
     12 C10        -4.9425   -4.0139   -0.0518 C.ar      1 <0>         0.1607
     13 C11        -3.7755   -4.7684   -0.1700 C.ar      1 <0>        -0.1426
     14 C12        -2.5524   -4.1612   -0.1856 C.ar      1 <0>         0.0051
     15 C13        -2.4685   -2.7728   -0.0824 C.ar      1 <0>        -0.2041
     16 C14        -1.1793   -2.0703   -0.1003 C.2       1 <0>         0.5494
     17 O1         -0.1296   -2.6782   -0.2059 O.2       1 <0>        -0.4963
     18 C15        -1.2987   -4.9877   -0.3137 C.3       1 <0>         0.1183
     19 O2         -1.6470   -6.3707   -0.4030 O.3       1 <0>        -0.5742
     20 O3         -6.1477   -4.6385   -0.0381 O.3       1 <0>        -0.4926
     21 O4          3.5488    2.1081   -0.0206 O.3       1 <0>        -0.4960
     22 H1          0.0191    0.2472   -2.1266 H         1 <0>         0.1335
     23 H2          2.1352    1.5030   -2.1394 H         1 <0>         0.1406
     24 H3          2.3631    1.1659    2.1148 H         1 <0>         0.1406
     25 H4          0.2490   -0.0932    2.1293 H         1 <0>         0.1337
     26 H5         -2.3582    1.0212    0.2037 H         1 <0>         0.2045
     27 H6         -5.7927   -2.0586    0.1435 H         1 <0>         0.1490
     28 H7         -3.8398   -5.8436   -0.2496 H         1 <0>         0.1515
     29 H8         -0.7579   -4.6905   -1.2122 H         1 <0>         0.0744
     30 H9         -0.6672   -4.8277    0.5601 H         1 <0>         0.0743
     31 H10        -0.8873   -6.9630   -0.4878 H         1 <0>         0.3884
     32 H11        -6.5422   -4.7513   -0.9137 H         1 <0>         0.4003
     33 H12         3.4375    3.0652    0.0609 H         1 <0>         0.3972
@<TRIPOS>BOND
     1    1    6 ar
     2    1    2 ar
     3    1   22 1
     4    2    3 ar
     5    2   23 1
     6    3    4 ar
     7    3   21 1
     8    4    5 ar
     9    4   24 1
    10    5    6 ar
    11    5   25 1
    12    6    7 1
    13    7   16 am
    14    7    8 1
    15    8    9 2
    16    8   26 1
    17    9   10 1
    18   10   15 ar
    19   10   11 ar
    20   11   12 ar
    21   11   27 1
    22   12   13 ar
    23   12   20 1
    24   13   14 ar
    25   13   28 1
    26   14   15 ar
    27   14   18 1
    28   15   16 1
    29   16   17 2
    30   18   19 1
    31   18   29 1
    32   18   30 1
    33   19   31 1
    34   20   32 1
    35   21   33 1
@<TRIPOS>MOLECULE
CHEMBL360872
   67    72     0     0     0
SMALL
USER_CHARGES

@<TRIPOS>ATOM
      1 C1          0.0438    1.0466    0.0482 C.ar      1 <0>        -0.0739
      2 C2          1.1882    1.8192    0.0061 C.ar      1 <0>        -0.1364
      3 C3          2.4352    1.2115    0.0270 C.ar      1 <0>         0.1111
      4 C4          2.5294   -0.1712    0.0902 C.ar      1 <0>        -0.1983
      5 C5          1.3820   -0.9394    0.1320 C.ar      1 <0>        -0.0633
      6 C6          0.1404   -0.3313    0.1110 C.ar      1 <0>        -0.0828
      7 C7         -1.1097   -1.1716    0.1572 C.3       1 <0>         0.0353
      8 C8         -1.1402   -1.9312    1.4517 C.ar      1 <0>        -0.0816
      9 C9         -1.6253   -1.2965    2.5866 C.ar      1 <0>        -0.0910
     10 C10        -1.6696   -1.9619    3.7940 C.ar      1 <0>        -0.1439
     11 C11        -1.2268   -3.2745    3.8741 C.ar      1 <0>         0.1135
     12 C12        -0.7424   -3.9064    2.7408 C.ar      1 <0>        -0.1422
     13 C13        -0.6977   -3.2340    1.5291 C.ar      1 <0>        -0.0549
     14 C14        -0.1610   -3.9518    0.3254 C.3       1 <0>        -0.0458
     15 C15        -0.6882   -3.3710   -0.9567 C.ar      1 <0>        -0.0690
     16 C16        -1.1260   -2.0890   -1.0313 C.ar      1 <0>        -0.0572
     17 C17        -1.6138   -1.5899   -2.2570 C.ar      1 <0>        -0.0472
     18 C18        -2.0776   -0.2663   -2.3619 C.ar      1 <0>        -0.0949
     19 C19        -2.5415    0.1918   -3.5551 C.ar      1 <0>        -0.1336
     20 C20        -2.5645   -0.6341   -4.6835 C.ar      1 <0>         0.1116
     21 C21        -2.1219   -1.9244   -4.6163 C.ar      1 <0>        -0.1322
     22 C22        -1.6381   -2.4280   -3.3976 C.ar      1 <0>        -0.0362
     23 C23        -1.1761   -3.7500   -3.2846 C.ar      1 <0>        -0.0990
     24 C24        -0.7156   -4.1968   -2.0877 C.ar      1 <0>        -0.1088
     25 O1         -3.0331   -0.1464   -5.8620 O.3       1 <0>        -0.4981
     26 O2         -1.2677   -3.9372    5.0599 O.3       1 <0>        -0.4995
     27 O3          3.5625    1.9693   -0.0147 O.3       1 <0>        -0.3286
     28 C25         4.8117    1.2758    0.0102 C.3       1 <0>         0.0258
     29 C26         5.9580    2.2878   -0.0434 C.3       1 <0>        -0.0007
     30 N1          5.9254    3.1288    1.1606 N.4       1 <0>        -0.3839
     31 C27         6.9247    4.1968    1.0368 C.3       1 <0>        -0.0071
     32 C28         6.8396    5.1234    2.2516 C.3       1 <0>        -0.1466
     33 C29         7.1096    4.3145    3.5236 C.3       1 <0>        -0.1389
     34 C30         6.1082    3.1588    3.6040 C.3       1 <0>        -0.1453
     35 C31         6.2203    2.3050    2.3391 C.3       1 <0>        -0.0132
     36 H1         -0.9271    1.5194    0.0364 H         1 <0>         0.1351
     37 H2          1.1123    2.8954   -0.0434 H         1 <0>         0.1337
     38 H3          3.4990   -0.6467    0.1062 H         1 <0>         0.1264
     39 H4          1.4548   -2.0158    0.1812 H         1 <0>         0.1291
     40 H5         -1.9793   -0.5161    0.1114 H         1 <0>         0.1009
     41 H6         -1.9700   -0.2750    2.5240 H         1 <0>         0.1273
     42 H7         -2.0474   -1.4628    4.6741 H         1 <0>         0.1316
     43 H8         -0.3972   -4.9280    2.8013 H         1 <0>         0.1316
     44 H9          0.9267   -3.8808    0.3260 H         1 <0>         0.0921
     45 H10        -0.4463   -5.0022    0.3826 H         1 <0>         0.0938
     46 H11        -2.0650    0.3831   -1.4990 H         1 <0>         0.1296
     47 H12        -2.8977    1.2085   -3.6325 H         1 <0>         0.1310
     48 H13        -2.1442   -2.5534   -5.4940 H         1 <0>         0.1361
     49 H14        -1.1868   -4.4055   -4.1429 H         1 <0>         0.1325
     50 H15        -0.3622   -5.2141   -2.0058 H         1 <0>         0.1275
     51 H16        -2.3543    0.2628   -6.4160 H         1 <0>         0.3927
     52 H17        -2.0939   -4.4152    5.2151 H         1 <0>         0.3956
     53 H18         4.8850    0.6921    0.9278 H         1 <0>         0.0859
     54 H19         4.8746    0.6096   -0.8502 H         1 <0>         0.1086
     55 H20         6.9090    1.7574   -0.0905 H         1 <0>         0.1486
     56 H21         5.8477    2.9152   -0.9279 H         1 <0>         0.1423
     57 H22         7.9209    3.7574    0.9846 H         1 <0>         0.1290
     58 H23         6.7332    4.7695    0.1294 H         1 <0>         0.1309
     59 H24         7.5835    5.9146    2.1586 H         1 <0>         0.1130
     60 H25         5.8439    5.5635    2.3046 H         1 <0>         0.0879
     61 H26         8.1239    3.9165    3.4940 H         1 <0>         0.0820
     62 H27         6.9946    4.9579    4.3959 H         1 <0>         0.0947
     63 H28         6.3292    2.5457    4.4777 H         1 <0>         0.1123
     64 H29         5.0972    3.5581    3.6851 H         1 <0>         0.0879
     65 H30         5.5088    1.4810    2.3932 H         1 <0>         0.1273
     66 H31         7.2315    1.9059    2.2591 H         1 <0>         0.1301
     67 H32         5.0086    3.5385    1.2588 H         1 <0>         0.4294
@<TRIPOS>BOND
     1    1    6 ar
     2    1    2 ar
     3    1   36 1
     4    2    3 ar
     5    2   37 1
     6    3    4 ar
     7    3   27 1
     8    4    5 ar
     9    4   38 1
    10    5    6 ar
    11    5   39 1
    12    6    7 1
    13    7   16 1
    14    7    8 1
    15    7   40 1
    16    8   13 ar
    17    8    9 ar
    18    9   10 ar
    19    9   41 1
    20   10   11 ar
    21   10   42 1
    22   11   12 ar
    23   11   26 1
    24   12   13 ar
    25   12   43 1
    26   13   14 1
    27   14   15 1
    28   14   44 1
    29   14   45 1
    30   15   24 ar
    31   15   16 ar
    32   16   17 ar
    33   17   22 ar
    34   17   18 ar
    35   18   19 ar
    36   18   46 1
    37   19   20 ar
    38   19   47 1
    39   20   21 ar
    40   20   25 1
    41   21   22 ar
    42   21   48 1
    43   22   23 ar
    44   23   24 ar
    45   23   49 1
    46   24   50 1
    47   25   51 1
    48   26   52 1
    49   27   28 1
    50   28   29 1
    51   28   53 1
    52   28   54 1
    53   29   30 1
    54   29   55 1
    55   29   56 1
    56   30   35 1
    57   30   31 1
    58   30   67 1
    59   31   32 1
    60   31   57 1
    61   31   58 1
    62   32   33 1
    63   32   59 1
    64   32   60 1
    65   33   34 1
    66   33   61 1
    67   33   62 1
    68   34   35 1
    69   34   63 1
    70   34   64 1
    71   35   65 1
    72   35   66 1
@<TRIPOS>MOLECULE
CHEMBL360872__1
   67    72     0     0     0
SMALL
USER_CHARGES

@<TRIPOS>ATOM
      1 C1          0.0438    1.0466    0.0482 C.ar      1 <0>        -0.0737
      2 C2          1.1882    1.8192    0.0061 C.ar      1 <0>        -0.1361
      3 C3          2.4352    1.2115    0.0270 C.ar      1 <0>         0.1111
      4 C4          2.5294   -0.1712    0.0902 C.ar      1 <0>        -0.1985
      5 C5          1.3820   -0.9394    0.1320 C.ar      1 <0>        -0.0640
      6 C6          0.1404   -0.3313    0.1110 C.ar      1 <0>        -0.0828
      7 C7         -1.1097   -1.1716    0.1572 C.3       1 <0>         0.0354
      8 C8         -1.1549   -2.0480   -1.0608 C.ar      1 <0>        -0.0822
      9 C9         -1.6575   -1.5225   -2.2427 C.ar      1 <0>        -0.0906
     10 C10        -1.7153   -2.2968   -3.3825 C.ar      1 <0>        -0.1431
     11 C11        -1.2687   -3.6101   -3.3470 C.ar      1 <0>         0.1140
     12 C12        -0.7670   -4.1334   -2.1667 C.ar      1 <0>        -0.1422
     13 C13        -0.7088   -3.3514   -1.0232 C.ar      1 <0>        -0.0559
     14 C14        -0.1549   -3.9534    0.2351 C.3       1 <0>        -0.0458
     15 C15        -0.6706   -3.2589    1.4644 C.ar      1 <0>        -0.0685
     16 C16        -1.1114   -1.9760    1.4251 C.ar      1 <0>        -0.0567
     17 C17        -1.5891   -1.3674    2.6044 C.ar      1 <0>        -0.0473
     18 C18        -2.0543   -0.0401    2.5914 C.ar      1 <0>        -0.0946
     19 C19        -2.5112    0.5241    3.7412 C.ar      1 <0>        -0.1344
     20 C20        -2.5260   -0.1961    4.9400 C.ar      1 <0>         0.1111
     21 C21        -2.0808   -1.4866    4.9875 C.ar      1 <0>        -0.1324
     22 C22        -1.6024   -2.0977    3.8169 C.ar      1 <0>        -0.0361
     23 C23        -1.1355   -3.4229    3.8220 C.ar      1 <0>        -0.1003
     24 C24        -0.6839   -3.9773    2.6668 C.ar      1 <0>        -0.1078
     25 O1         -2.9888    0.3958    6.0722 O.3       1 <0>        -0.5005
     26 O2         -1.3229   -4.3797   -4.4658 O.3       1 <0>        -0.4969
     27 O3          3.5625    1.9693   -0.0147 O.3       1 <0>        -0.3285
     28 C25         4.8117    1.2758    0.0102 C.3       1 <0>         0.0259
     29 C26         5.9580    2.2878   -0.0434 C.3       1 <0>        -0.0007
     30 N1          5.9254    3.1288    1.1606 N.4       1 <0>        -0.3840
     31 C27         6.9247    4.1968    1.0368 C.3       1 <0>        -0.0070
     32 C28         6.8396    5.1234    2.2516 C.3       1 <0>        -0.1467
     33 C29         7.1096    4.3145    3.5236 C.3       1 <0>        -0.1388
     34 C30         6.1082    3.1588    3.6040 C.3       1 <0>        -0.1455
     35 C31         6.2203    2.3050    2.3391 C.3       1 <0>        -0.0131
     36 H1         -0.9271    1.5194    0.0364 H         1 <0>         0.1350
     37 H2          1.1123    2.8954   -0.0434 H         1 <0>         0.1338
     38 H3          3.4990   -0.6467    0.1062 H         1 <0>         0.1263
     39 H4          1.4548   -2.0158    0.1812 H         1 <0>         0.1292
     40 H5         -1.9792   -0.5144    0.1527 H         1 <0>         0.1010
     41 H6         -2.0054   -0.5004   -2.2702 H         1 <0>         0.1275
     42 H7         -2.1071   -1.8825   -4.2997 H         1 <0>         0.1322
     43 H8         -0.4189   -5.1553   -2.1372 H         1 <0>         0.1317
     44 H9         -0.4356   -5.0057    0.2782 H         1 <0>         0.0939
     45 H10         0.9324   -3.8785    0.2153 H         1 <0>         0.0919
     46 H11        -2.0484    0.5281    1.6730 H         1 <0>         0.1299
     47 H12        -2.8682    1.5433    3.7284 H         1 <0>         0.1306
     48 H13        -2.0963   -2.0332    5.9189 H         1 <0>         0.1357
     49 H14        -1.1349   -3.9963    4.7373 H         1 <0>         0.1323
     50 H15        -0.3266   -4.9964    2.6754 H         1 <0>         0.1277
     51 H16        -3.9378    0.2795    6.2171 H         1 <0>         0.3951
     52 H17        -0.5279   -4.3328   -5.0143 H         1 <0>         0.3930
     53 H18         4.8850    0.6921    0.9278 H         1 <0>         0.0857
     54 H19         4.8746    0.6096   -0.8502 H         1 <0>         0.1086
     55 H20         6.9090    1.7574   -0.0905 H         1 <0>         0.1486
     56 H21         5.8477    2.9152   -0.9279 H         1 <0>         0.1424
     57 H22         7.9209    3.7574    0.9846 H         1 <0>         0.1290
     58 H23         6.7332    4.7695    0.1294 H         1 <0>         0.1309
     59 H24         7.5835    5.9146    2.1586 H         1 <0>         0.1131
     60 H25         5.8439    5.5635    2.3046 H         1 <0>         0.0880
     61 H26         8.1239    3.9165    3.4940 H         1 <0>         0.0820
     62 H27         6.9946    4.9579    4.3959 H         1 <0>         0.0948
     63 H28         6.3292    2.5457    4.4777 H         1 <0>         0.1123
     64 H29         5.0972    3.5581    3.6851 H         1 <0>         0.0880
     65 H30         5.5088    1.4810    2.3932 H         1 <0>         0.1271
     66 H31         7.2315    1.9059    2.2591 H         1 <0>         0.1301
     67 H32         5.0086    3.5385    1.2588 H         1 <0>         0.4295
@<TRIPOS>BOND
     1    1    6 ar
     2    1    2 ar
     3    1   36 1
     4    2    3 ar
     5    2   37 1
     6    3    4 ar
     7    3   27 1
     8    4    5 ar
     9    4   38 1
    10    5    6 ar
    11    5   39 1
    12    6    7 1
    13    7   16 1
    14    7    8 1
    15    7   40 1
    16    8   13 ar
    17    8    9 ar
    18    9   10 ar
    19    9   41 1
    20   10   11 ar
    21   10   42 1
    22   11   12 ar
    23   11   26 1
    24   12   13 ar
    25   12   43 1
    26   13   14 1
    27   14   15 1
    28   14   44 1
    29   14   45 1
    30   15   24 ar
    31   15   16 ar
    32   16   17 ar
    33   17   22 ar
    34   17   18 ar
    35   18   19 ar
    36   18   46 1
    37   19   20 ar
    38   19   47 1
    39   20   21 ar
    40   20   25 1
    41   21   22 ar
    42   21   48 1
    43   22   23 ar
    44   23   24 ar
    45   23   49 1
    46   24   50 1
    47   25   51 1
    48   26   52 1
    49   27   28 1
    50   28   29 1
    51   28   53 1
    52   28   54 1
    53   29   30 1
    54   29   55 1
    55   29   56 1
    56   30   35 1
    57   30   31 1
    58   30   67 1
    59   31   32 1
    60   31   57 1
    61   31   58 1
    62   32   33 1
    63   32   59 1
    64   32   60 1
    65   33   34 1
    66   33   61 1
    67   33   62 1
    68   34   35 1
    69   34   63 1
    70   34   64 1
    71   35   65 1
    72   35   66 1
@<TRIPOS>MOLECULE
CHEMBL184598
   64    69     0     0     0
SMALL
USER_CHARGES

@<TRIPOS>ATOM
      1 C1          0.2411   -0.1364   -0.8981 C.ar      1 <0>        -0.0874
      2 C2          1.3702    0.6487   -1.0285 C.ar      1 <0>        -0.1389
      3 C3          1.3647    1.9535   -0.5570 C.ar      1 <0>         0.1157
      4 C4          0.2246    2.4664    0.0444 C.ar      1 <0>        -0.1461
      5 C5         -0.9020    1.6772    0.1725 C.ar      1 <0>        -0.0837
      6 C6         -0.8939    0.3772   -0.2982 C.ar      1 <0>        -0.0898
      7 C7         -2.1244   -0.4814   -0.1576 C.3       1 <0>        -0.0641
      8 H1         -2.9891    0.1425    0.0685 H         1 <0>         0.1382
      9 C8         -1.9173   -1.5163    0.9609 C.3       1 <0>         0.1497
     10 H2         -2.7563   -2.2119    0.9739 H         1 <0>         0.0963
     11 O1         -0.7140   -2.2284    0.7165 O.3       1 <0>        -0.3050
     12 C9         -0.5200   -2.9407   -0.4182 C.ar      1 <0>         0.1211
     13 C10         0.4101   -3.9769   -0.3779 C.ar      1 <0>        -0.1140
     14 C11         0.6693   -4.7335   -1.5020 C.ar      1 <0>        -0.1061
     15 C12         0.0043   -4.4693   -2.6904 C.ar      1 <0>         0.0986
     16 C13        -0.9274   -3.4453   -2.7409 C.ar      1 <0>        -0.0901
     17 C14        -1.1938   -2.6880   -1.6078 C.ar      1 <0>        -0.1477
     18 S1         -2.4135   -1.4096   -1.6968 S.3       1 <0>        -0.0841
     19 O2          0.2658   -5.2110   -3.7997 O.3       1 <0>        -0.4915
     20 C15        -1.8266   -0.8111    2.2896 C.ar      1 <0>        -0.1044
     21 C16        -0.6430   -0.2062    2.6705 C.ar      1 <0>        -0.0346
     22 C17        -0.5572    0.4405    3.8882 C.ar      1 <0>        -0.1415
     23 C18        -1.6599    0.4832    4.7289 C.ar      1 <0>         0.1243
     24 C19        -2.8464   -0.1241    4.3442 C.ar      1 <0>        -0.2033
     25 C20        -2.9287   -0.7651    3.1232 C.ar      1 <0>        -0.0589
     26 O3         -1.5778    1.1184    5.9275 O.3       1 <0>        -0.3267
     27 C21        -2.7525    1.1225    6.7414 C.3       1 <0>         0.0259
     28 C22        -2.4698    1.8785    8.0411 C.3       1 <0>         0.0000
     29 N1         -2.1866    3.2874    7.7364 N.4       1 <0>        -0.3849
     30 C23        -1.7902    3.9866    8.9681 C.3       1 <0>        -0.0090
     31 C24        -2.7781    5.1403    9.1965 C.3       1 <0>        -0.1174
     32 C25        -4.1351    4.6934    9.7607 C.3       1 <0>        -0.1435
     33 C26        -4.7906    5.5149    8.6389 C.3       1 <0>        -0.1228
     34 C27        -3.4947    5.3171    7.8349 C.3       1 <0>        -0.1351
     35 C28        -3.3938    3.9237    7.1857 C.3       1 <0>        -0.0020
     36 O4          2.4744    2.7277   -0.6838 O.3       1 <0>        -0.4998
     37 H3          0.2434   -1.1507   -1.2690 H         1 <0>         0.1323
     38 H4          2.2566    0.2471   -1.4968 H         1 <0>         0.1315
     39 H5          0.2179    3.4817    0.4126 H         1 <0>         0.1294
     40 H6         -1.7898    2.0760    0.6407 H         1 <0>         0.1235
     41 H7          0.9337   -4.1899    0.5424 H         1 <0>         0.1413
     42 H8          1.3928   -5.5340   -1.4567 H         1 <0>         0.1429
     43 H9         -1.4476   -3.2352   -3.6638 H         1 <0>         0.1405
     44 H10        -0.2949   -5.9936   -3.8907 H         1 <0>         0.3946
     45 H11         0.2152   -0.2397    2.0157 H         1 <0>         0.1389
     46 H12         0.3677    0.9122    4.1856 H         1 <0>         0.1353
     47 H13        -3.7063   -0.0923    4.9969 H         1 <0>         0.1312
     48 H14        -3.8535   -1.2342    2.8213 H         1 <0>         0.1347
     49 H15        -3.5645    1.6132    6.2048 H         1 <0>         0.0864
     50 H16        -3.0378    0.0962    6.9727 H         1 <0>         0.1097
     51 H17        -3.3400    1.8159    8.6945 H         1 <0>         0.1480
     52 H18        -1.6083    1.4344    8.5398 H         1 <0>         0.1437
     53 H19        -1.8271    3.2972    9.8115 H         1 <0>         0.1348
     54 H20        -0.7804    4.3822    8.8588 H         1 <0>         0.1354
     55 H21        -2.3410    6.0378    9.6340 H         1 <0>         0.1438
     56 H22        -4.3108    3.6210    9.6755 H         1 <0>         0.0823
     57 H23        -4.3400    5.0783   10.7597 H         1 <0>         0.0930
     58 H24        -5.6586    5.0292    8.1931 H         1 <0>         0.0840
     59 H25        -4.9798    6.5530    8.9123 H         1 <0>         0.1051
     60 H26        -3.1782    6.1539    7.2122 H         1 <0>         0.1237
     61 H27        -3.3034    4.0218    6.1039 H         1 <0>         0.1349
     62 H28        -4.2743    3.3315    7.4347 H         1 <0>         0.1320
     63 H29         2.5084    3.2346   -1.5066 H         1 <0>         0.3955
     64 H30        -1.4383    3.3435    7.0618 H         1 <0>         0.4343
@<TRIPOS>BOND
     1    1    6 ar
     2    1    2 ar
     3    1   37 1
     4    2    3 ar
     5    2   38 1
     6    3    4 ar
     7    3   36 1
     8    4    5 ar
     9    4   39 1
    10    5    6 ar
    11    5   40 1
    12    6    7 1
    13    7    8 1
    14    7   18 1
    15    7    9 1
    16    9   10 1
    17    9   11 1
    18    9   20 1
    19   11   12 1
    20   12   17 ar
    21   12   13 ar
    22   13   14 ar
    23   13   41 1
    24   14   15 ar
    25   14   42 1
    26   15   16 ar
    27   15   19 1
    28   16   17 ar
    29   16   43 1
    30   17   18 1
    31   19   44 1
    32   20   25 ar
    33   20   21 ar
    34   21   22 ar
    35   21   45 1
    36   22   23 ar
    37   22   46 1
    38   23   24 ar
    39   23   26 1
    40   24   25 ar
    41   24   47 1
    42   25   48 1
    43   26   27 1
    44   27   28 1
    45   27   49 1
    46   27   50 1
    47   28   29 1
    48   28   51 1
    49   28   52 1
    50   29   35 1
    51   29   30 1
    52   29   64 1
    53   30   31 1
    54   30   53 1
    55   30   54 1
    56   31   34 1
    57   31   32 1
    58   31   55 1
    59   32   33 1
    60   32   56 1
    61   32   57 1
    62   33   34 1
    63   33   58 1
    64   33   59 1
    65   34   35 1
    66   34   60 1
    67   35   61 1
    68   35   62 1
    69   36   63 1
@<TRIPOS>MOLECULE
CHEMBL184598__1
   64    69     0     0     0
SMALL
USER_CHARGES

@<TRIPOS>ATOM
      1 C1          1.1631   -0.6117   -0.4390 C.ar      1 <0>        -0.0873
      2 C2          2.3518    0.0921   -0.4484 C.ar      1 <0>        -0.1389
      3 C3          2.3800    1.4096   -0.0147 C.ar      1 <0>         0.1156
      4 C4          1.2137    2.0170    0.4273 C.ar      1 <0>        -0.1461
      5 C5          0.0275    1.3089    0.4346 C.ar      1 <0>        -0.0837
      6 C6          0.0021   -0.0041    0.0020 C.ar      1 <0>        -0.0894
      7 C7         -1.2934   -0.7740    0.0107 C.3       1 <0>        -0.0642
      8 H1         -2.1334   -0.0869    0.1120 H         1 <0>         0.1382
      9 C8         -1.2969   -1.7821    1.1721 C.3       1 <0>         0.1497
     10 H2         -2.1779   -2.4197    1.0986 H         1 <0>         0.0960
     11 O1         -0.1255   -2.5802    1.0967 O.3       1 <0>        -0.3050
     12 C9          0.1551   -3.3416    0.0132 C.ar      1 <0>         0.1211
     13 C10         0.9986   -4.4351    0.1946 C.ar      1 <0>        -0.1141
     14 C11         1.3394   -5.2447   -0.8692 C.ar      1 <0>        -0.1061
     15 C12         0.8443   -4.9772   -2.1372 C.ar      1 <0>         0.0986
     16 C13        -0.0005   -3.8960   -2.3286 C.ar      1 <0>        -0.0901
     17 C14        -0.3494   -3.0850   -1.2568 C.ar      1 <0>        -0.1477
     18 S1         -1.4568   -1.7323   -1.5285 S.3       1 <0>        -0.0841
     19 O2          1.1866   -5.7716   -3.1864 O.3       1 <0>        -0.4915
     20 C15        -1.3198   -1.0400    2.4835 C.ar      1 <0>        -0.1048
     21 C16        -0.1522   -0.5024    2.9927 C.ar      1 <0>        -0.0349
     22 C17        -0.1704    0.1779    4.1949 C.ar      1 <0>        -0.1424
     23 C18        -1.3617    0.3218    4.8912 C.ar      1 <0>         0.1230
     24 C19        -2.5320   -0.2182    4.3779 C.ar      1 <0>        -0.2033
     25 C20        -2.5094   -0.8931    3.1727 C.ar      1 <0>        -0.0589
     26 O3         -1.3822    0.9902    6.0743 O.3       1 <0>        -0.3234
     27 C21        -2.6441    1.0995    6.7359 C.3       1 <0>         0.0284
     28 C22        -2.4698    1.8785    8.0411 C.3       1 <0>         0.0044
     29 N1         -2.0692    3.2589    7.7377 N.4       1 <0>        -0.4021
     30 C23        -0.6872    3.2764    7.1561 C.3       1 <0>         0.0246
     31 C24        -0.1304    4.5763    7.6982 C.3       1 <0>        -0.1710
     32 C25         1.1719    4.8647    8.3767 C.3       1 <0>        -0.1045
     33 C26         0.2119    5.6160    9.3619 C.3       1 <0>        -0.1034
     34 C27        -0.5491    4.3397    9.2123 C.3       1 <0>        -0.1653
     35 C28        -2.0132    4.0638    8.9958 C.3       1 <0>         0.0109
     36 O4          3.5482    2.1039   -0.0225 O.3       1 <0>        -0.4999
     37 H3          1.1398   -1.6359   -0.7807 H         1 <0>         0.1322
     38 H4          3.2585   -0.3831   -0.7926 H         1 <0>         0.1314
     39 H5          1.2331    3.0424    0.7657 H         1 <0>         0.1292
     40 H6         -0.8807    1.7813    0.7787 H         1 <0>         0.1234
     41 H7          1.3899   -4.6512    1.1778 H         1 <0>         0.1412
     42 H8          1.9942   -6.0894   -0.7144 H         1 <0>         0.1429
     43 H9         -0.3883   -3.6831   -3.3139 H         1 <0>         0.1405
     44 H10         0.5878   -6.5179   -3.3264 H         1 <0>         0.3946
     45 H11         0.7750   -0.6147    2.4504 H         1 <0>         0.1383
     46 H12         0.7420    0.5970    4.5927 H         1 <0>         0.1343
     47 H13        -3.4607   -0.1075    4.9180 H         1 <0>         0.1312
     48 H14        -3.4210   -1.3098    2.7705 H         1 <0>         0.1342
     49 H15        -3.3483    1.6246    6.0906 H         1 <0>         0.0859
     50 H16        -3.0265    0.1028    6.9560 H         1 <0>         0.1093
     51 H17        -3.4123    1.8857    8.5886 H         1 <0>         0.1493
     52 H18        -1.7003    1.4021    8.6486 H         1 <0>         0.1388
     53 H19        -0.1053    2.4263    7.5121 H         1 <0>         0.1368
     54 H20        -0.7244    3.2941    6.0669 H         1 <0>         0.1351
     55 H21        -0.5947    5.4581    7.2567 H         1 <0>         0.1232
     56 H22         1.6653    3.9907    8.8020 H         1 <0>         0.1049
     57 H23         1.8429    5.5136    7.8139 H         1 <0>         0.0913
     58 H24         0.6237    5.7856   10.3568 H         1 <0>         0.0912
     59 H25        -0.2804    6.4911    8.9379 H         1 <0>         0.1046
     60 H26        -0.0250    3.4770    9.6234 H         1 <0>         0.1199
     61 H27        -2.5611    4.9980    8.8731 H         1 <0>         0.1332
     62 H28        -2.4188    3.4919    9.8303 H         1 <0>         0.1341
     63 H29         3.7178    2.5792   -0.8474 H         1 <0>         0.3955
     64 H30        -2.7223    3.6745    7.0905 H         1 <0>         0.4251
@<TRIPOS>BOND
     1    1    6 ar
     2    1    2 ar
     3    1   37 1
     4    2    3 ar
     5    2   38 1
     6    3    4 ar
     7    3   36 1
     8    4    5 ar
     9    4   39 1
    10    5    6 ar
    11    5   40 1
    12    6    7 1
    13    7    8 1
    14    7   18 1
    15    7    9 1
    16    9   10 1
    17    9   11 1
    18    9   20 1
    19   11   12 1
    20   12   17 ar
    21   12   13 ar
    22   13   14 ar
    23   13   41 1
    24   14   15 ar
    25   14   42 1
    26   15   16 ar
    27   15   19 1
    28   16   17 ar
    29   16   43 1
    30   17   18 1
    31   19   44 1
    32   20   25 ar
    33   20   21 ar
    34   21   22 ar
    35   21   45 1
    36   22   23 ar
    37   22   46 1
    38   23   24 ar
    39   23   26 1
    40   24   25 ar
    41   24   47 1
    42   25   48 1
    43   26   27 1
    44   27   28 1
    45   27   49 1
    46   27   50 1
    47   28   29 1
    48   28   51 1
    49   28   52 1
    50   29   35 1
    51   29   30 1
    52   29   64 1
    53   30   31 1
    54   30   53 1
    55   30   54 1
    56   31   34 1
    57   31   32 1
    58   31   55 1
    59   32   33 1
    60   32   56 1
    61   32   57 1
    62   33   34 1
    63   33   58 1
    64   33   59 1
    65   34   35 1
    66   34   60 1
    67   35   61 1
    68   35   62 1
    69   36   63 1
@<TRIPOS>MOLECULE
CHEMBL184598__2
   64    69     0     0     0
SMALL
USER_CHARGES

@<TRIPOS>ATOM
      1 C1          0.2247   -0.1306   -0.9044 C.ar      1 <0>        -0.0873
      2 C2          1.3531    0.6552   -1.0367 C.ar      1 <0>        -0.1389
      3 C3          1.3478    1.9597   -0.5645 C.ar      1 <0>         0.1157
      4 C4          0.2087    2.4717    0.0396 C.ar      1 <0>        -0.1462
      5 C5         -0.9172    1.6818    0.1694 C.ar      1 <0>        -0.0837
      6 C6         -0.9094    0.3820   -0.3020 C.ar      1 <0>        -0.0898
      7 C7         -2.1392   -0.4773   -0.1594 C.3       1 <0>        -0.0641
      8 H1         -3.0038    0.1461    0.0687 H         1 <0>         0.1382
      9 C8         -1.9292   -1.5126    0.9582 C.3       1 <0>         0.1497
     10 H2         -2.7679   -2.2087    0.9725 H         1 <0>         0.0962
     11 O1         -0.7260   -2.2240    0.7111 O.3       1 <0>        -0.3049
     12 C9         -0.5339   -2.9356   -0.4243 C.ar      1 <0>         0.1211
     13 C10         0.3968   -3.9713   -0.3863 C.ar      1 <0>        -0.1140
     14 C11         0.6543   -4.7272   -1.5113 C.ar      1 <0>        -0.1061
     15 C12        -0.0132   -4.4628   -2.6983 C.ar      1 <0>         0.0985
     16 C13        -0.9456   -3.4392   -2.7465 C.ar      1 <0>        -0.0901
     17 C14        -1.2102   -2.6827   -1.6125 C.ar      1 <0>        -0.1477
     18 S1         -2.4307   -1.4049   -1.6985 S.3       1 <0>        -0.0841
     19 O2          0.2465   -5.2039   -3.8084 O.3       1 <0>        -0.4915
     20 C15        -1.8363   -0.8079    2.2871 C.ar      1 <0>        -0.1047
     21 C16        -0.6524   -0.2026    2.6660 C.ar      1 <0>        -0.0346
     22 C17        -0.5645    0.4436    3.8838 C.ar      1 <0>        -0.1419
     23 C18        -1.6656    0.4852    4.7267 C.ar      1 <0>         0.1246
     24 C19        -2.8526   -0.1225    4.3440 C.ar      1 <0>        -0.2034
     25 C20        -2.9369   -0.7630    3.1229 C.ar      1 <0>        -0.0589
     26 O3         -1.5816    1.1199    5.9254 O.3       1 <0>        -0.3269
     27 C21        -2.7546    1.1229    6.7416 C.3       1 <0>         0.0270
     28 C22        -2.4698    1.8785    8.0411 C.3       1 <0>         0.0052
     29 N1         -2.1866    3.2874    7.7364 N.4       1 <0>        -0.4018
     30 C23        -1.8431    4.0233    8.9910 C.3       1 <0>         0.0110
     31 C24        -3.0073    4.9482    9.2266 C.3       1 <0>        -0.1644
     32 C25        -3.0851    6.4317    9.3805 C.3       1 <0>        -0.1041
     33 C26        -4.2988    6.2153    8.4126 C.3       1 <0>        -0.1042
     34 C27        -3.2902    5.3557    7.7174 C.3       1 <0>        -0.1689
     35 C28        -3.4101    3.9471    7.1741 C.3       1 <0>         0.0097
     36 O4          2.4568    2.7346   -0.6930 O.3       1 <0>        -0.4999
     37 H3          0.2268   -1.1447   -1.2759 H         1 <0>         0.1323
     38 H4          2.2388    0.2543   -1.5070 H         1 <0>         0.1315
     39 H5          0.2022    3.4868    0.4083 H         1 <0>         0.1293
     40 H6         -1.8043    2.0799    0.6396 H         1 <0>         0.1235
     41 H7          0.9224   -4.1844    0.5328 H         1 <0>         0.1413
     42 H8          1.3783   -5.5274   -1.4678 H         1 <0>         0.1429
     43 H9         -1.4676   -3.2290   -3.6683 H         1 <0>         0.1405
     44 H10        -0.3139   -5.9867   -3.8987 H         1 <0>         0.3946
     45 H11         0.2045   -0.2353    2.0095 H         1 <0>         0.1387
     46 H12         0.3607    0.9156    4.1797 H         1 <0>         0.1350
     47 H13        -3.7112   -0.0915    4.9984 H         1 <0>         0.1313
     48 H14        -3.8620   -1.2325    2.8225 H         1 <0>         0.1347
     49 H15        -3.5679    1.6135    6.2068 H         1 <0>         0.0860
     50 H16        -3.0389    0.0964    6.9730 H         1 <0>         0.1085
     51 H17        -3.3390    1.8160    8.6958 H         1 <0>         0.1470
     52 H18        -1.6077    1.4340    8.5384 H         1 <0>         0.1416
     53 H19        -1.7378    3.3266    9.8227 H         1 <0>         0.1352
     54 H20        -0.9253    4.5956    8.8560 H         1 <0>         0.1340
     55 H21        -3.8693    4.4340    9.6515 H         1 <0>         0.1206
     56 H22        -3.3559    6.7714   10.3802 H         1 <0>         0.0922
     57 H23        -2.2485    6.9783    8.9452 H         1 <0>         0.1054
     58 H24        -5.1357    5.6703    8.8492 H         1 <0>         0.1052
     59 H25        -4.5991    7.1030    7.8560 H         1 <0>         0.0920
     60 H26        -2.4727    5.9153    7.2629 H         1 <0>         0.1255
     61 H27        -3.3850    3.9477    6.0844 H         1 <0>         0.1339
     62 H28        -4.3154    3.4646    7.5425 H         1 <0>         0.1332
     63 H29         2.4890    3.2420   -1.5156 H         1 <0>         0.3955
     64 H30        -1.4252    3.3527    7.0775 H         1 <0>         0.4338
@<TRIPOS>BOND
     1    1    6 ar
     2    1    2 ar
     3    1   37 1
     4    2    3 ar
     5    2   38 1
     6    3    4 ar
     7    3   36 1
     8    4    5 ar
     9    4   39 1
    10    5    6 ar
    11    5   40 1
    12    6    7 1
    13    7    8 1
    14    7   18 1
    15    7    9 1
    16    9   10 1
    17    9   11 1
    18    9   20 1
    19   11   12 1
    20   12   17 ar
    21   12   13 ar
    22   13   14 ar
    23   13   41 1
    24   14   15 ar
    25   14   42 1
    26   15   16 ar
    27   15   19 1
    28   16   17 ar
    29   16   43 1
    30   17   18 1
    31   19   44 1
    32   20   25 ar
    33   20   21 ar
    34   21   22 ar
    35   21   45 1
    36   22   23 ar
    37   22   46 1
    38   23   24 ar
    39   23   26 1
    40   24   25 ar
    41   24   47 1
    42   25   48 1
    43   26   27 1
    44   27   28 1
    45   27   49 1
    46   27   50 1
    47   28   29 1
    48   28   51 1
    49   28   52 1
    50   29   35 1
    51   29   30 1
    52   29   64 1
    53   30   31 1
    54   30   53 1
    55   30   54 1
    56   31   34 1
    57   31   32 1
    58   31   55 1
    59   32   33 1
    60   32   56 1
    61   32   57 1
    62   33   34 1
    63   33   58 1
    64   33   59 1
    65   34   35 1
    66   34   60 1
    67   35   61 1
    68   35   62 1
    69   36   63 1
@<TRIPOS>MOLECULE
CHEMBL189077
   32    35     0     0     0
SMALL
USER_CHARGES

@<TRIPOS>ATOM
      1 C1         -0.0149    1.3847    0.0668 C.ar      1 <0>        -0.1185
      2 C2          1.1396    2.1061    0.0045 C.ar      1 <0>        -0.0753
      3 C3          2.3797    1.4480   -0.0696 C.ar      1 <0>        -0.0400
      4 C4          3.5826    2.1710   -0.1342 C.ar      1 <0>        -0.1284
      5 C5          4.7705    1.5004   -0.2050 C.ar      1 <0>         0.1127
      6 C6          4.8048    0.1030   -0.2140 C.ar      1 <0>        -0.1246
      7 C7          3.6557   -0.6245   -0.1524 C.ar      1 <0>        -0.0946
      8 C8          2.4192    0.0322   -0.0789 C.ar      1 <0>        -0.0294
      9 C9          1.2046   -0.6950   -0.0135 C.ar      1 <0>        -0.0235
     10 C10         0.0040   -0.0044    0.0589 C.ar      1 <0>        -0.0496
     11 C11         1.2171   -2.1696   -0.0220 C.2       1 <0>         0.2949
     12 N1          0.5415   -2.9312    0.8021 N.2       1 <0>        -0.4564
     13 C12         0.7937   -4.2310    0.5018 C.ar      1 <0>         0.0145
     14 C13         0.3576   -5.4461    1.0371 C.ar      1 <0>        -0.0403
     15 C14         0.8007   -6.6234    0.5044 C.ar      1 <0>        -0.1399
     16 C15         1.6858   -6.6242   -0.5698 C.ar      1 <0>         0.1385
     17 C16         2.1289   -5.4301   -1.1128 C.ar      1 <0>        -0.1229
     18 C17         1.6868   -4.2284   -0.5828 C.ar      1 <0>         0.0260
     19 O1          1.9208   -2.9315   -0.8822 O.3       1 <0>        -0.2032
     20 O2          2.1179   -7.8039   -1.0885 O.3       1 <0>        -0.4887
     21 O3          5.9335    2.2004   -0.2679 O.3       1 <0>        -0.4978
     22 H1         -0.9609    1.9019    0.1280 H         1 <0>         0.1388
     23 H2          1.1017    3.1854    0.0116 H         1 <0>         0.1380
     24 H3          3.5681    3.2509   -0.1283 H         1 <0>         0.1403
     25 H4          5.7555   -0.4063   -0.2709 H         1 <0>         0.1344
     26 H5          3.6965   -1.7037   -0.1605 H         1 <0>         0.1300
     27 H6         -0.9255   -0.5520    0.1096 H         1 <0>         0.1378
     28 H7         -0.3286   -5.4544    1.8711 H         1 <0>         0.1442
     29 H8          0.4619   -7.5608    0.9202 H         1 <0>         0.1465
     30 H9          2.8162   -5.4352   -1.9459 H         1 <0>         0.1439
     31 H10         1.5612   -8.1481   -1.8003 H         1 <0>         0.3982
     32 H11         6.3203    2.3989    0.5959 H         1 <0>         0.3941
@<TRIPOS>BOND
     1    1   10 ar
     2    1    2 ar
     3    1   22 1
     4    2    3 ar
     5    2   23 1
     6    3    8 ar
     7    3    4 ar
     8    4    5 ar
     9    4   24 1
    10    5    6 ar
    11    5   21 1
    12    6    7 ar
    13    6   25 1
    14    7    8 ar
    15    7   26 1
    16    8    9 ar
    17    9   10 ar
    18    9   11 1
    19   10   27 1
    20   11   19 1
    21   11   12 2
    22   12   13 1
    23   13   18 ar
    24   13   14 ar
    25   14   15 ar
    26   14   28 1
    27   15   16 ar
    28   15   29 1
    29   16   17 ar
    30   16   20 1
    31   17   18 ar
    32   17   30 1
    33   18   19 1
    34   20   31 1
    35   21   32 1
@<TRIPOS>MOLECULE
CHEMBL150735
   62    66     0     0     0
SMALL
USER_CHARGES

@<TRIPOS>ATOM
      1 C1         -1.1129   -2.9838   -3.0485 C.ar      1 <0>        -0.0741
      2 C2         -0.5915   -3.1262   -4.3155 C.ar      1 <0>        -0.1422
      3 C3         -0.2653   -2.0027   -5.0652 C.ar      1 <0>         0.1265
      4 C4         -0.4637   -0.7310   -4.5414 C.ar      1 <0>        -0.1428
      5 C5         -0.9846   -0.5789   -3.2754 C.ar      1 <0>        -0.0721
      6 C6         -1.3142   -1.7064   -2.5174 C.ar      1 <0>        -0.0431
      7 C7         -1.8725   -1.5488   -1.1620 C.2       1 <0>        -0.0500
      8 C8         -1.5049   -2.2090    0.0030 C.2       1 <0>        -0.1669
      9 C9         -2.2187   -1.8718    1.2371 C.ar      1 <0>        -0.0738
     10 C10        -2.0244   -2.4048    2.5316 C.ar      1 <0>        -0.0617
     11 C11        -2.7851   -1.9768    3.5875 C.ar      1 <0>        -0.1357
     12 C12        -3.7698   -1.0071    3.4205 C.ar      1 <0>         0.1383
     13 C13        -3.9832   -0.4655    2.1631 C.ar      1 <0>        -0.1000
     14 C14        -3.2202   -0.8929    1.0967 C.ar      1 <0>        -0.1022
     15 S1         -3.1757   -0.4597   -0.6235 S.3       1 <0>         0.1000
     16 O1         -4.5149   -0.5959    4.4804 O.3       1 <0>        -0.4892
     17 C15        -0.4383   -3.2106   -0.0020 C.2       1 <0>         0.4624
     18 O2         -0.7122   -4.3916   -0.1210 O.2       1 <0>        -0.4288
     19 C16         0.9695   -2.7900    0.1371 C.ar      1 <0>        -0.1534
     20 C17         1.2785   -1.4499    0.3903 C.ar      1 <0>        -0.0365
     21 C18         2.5872   -1.0622    0.5196 C.ar      1 <0>        -0.1030
     22 C19         3.6086   -2.0017    0.3989 C.ar      1 <0>        -0.0666
     23 C20         3.3038   -3.3373    0.1463 C.ar      1 <0>        -0.1450
     24 C21         1.9967   -3.7318    0.0218 C.ar      1 <0>        -0.0374
     25 S2          5.2893   -1.4997    0.5657 S.3       1 <0>        -0.0464
     26 C22         6.2303   -3.0334    0.3354 C.3       1 <0>        -0.1692
     27 C23         7.7263   -2.7369    0.4570 C.3       1 <0>         0.0103
     28 N1          8.4884   -3.9789    0.2705 N.4       1 <0>        -0.3804
     29 C24         8.1785   -4.9099    1.3622 C.3       1 <0>        -0.0141
     30 C25         8.9070   -6.2352    1.1296 C.3       1 <0>        -0.1456
     31 C26        10.4165   -5.9810    1.0865 C.3       1 <0>        -0.1399
     32 C27        10.7200   -4.9523   -0.0066 C.3       1 <0>        -0.1461
     33 C28         9.9243   -3.6744    0.2681 C.3       1 <0>        -0.0064
     34 O3          0.2493   -2.1479   -6.3134 O.3       1 <0>        -0.4986
     35 H1         -1.3700   -3.8576   -2.4681 H         1 <0>         0.1333
     36 H2         -0.4356   -4.1127   -4.7266 H         1 <0>         0.1366
     37 H3         -0.2087    0.1394   -5.1277 H         1 <0>         0.1385
     38 H4         -1.1381    0.4098   -2.8689 H         1 <0>         0.1354
     39 H5         -1.2676   -3.1588    2.6901 H         1 <0>         0.1269
     40 H6         -2.6179   -2.3995    4.5672 H         1 <0>         0.1394
     41 H7         -4.7439    0.2873    2.0187 H         1 <0>         0.1434
     42 H8         -4.1375    0.1549    4.9589 H         1 <0>         0.3983
     43 H9          0.4871   -0.7210    0.4836 H         1 <0>         0.1404
     44 H10         2.8264   -0.0273    0.7147 H         1 <0>         0.1397
     45 H11         4.0977   -4.0635    0.0529 H         1 <0>         0.1249
     46 H12         1.7607   -4.7682   -0.1693 H         1 <0>         0.1418
     47 H13         5.9399   -3.7558    1.0982 H         1 <0>         0.1122
     48 H14         6.0203   -3.4436   -0.6523 H         1 <0>         0.1125
     49 H15         8.0168   -2.0144   -0.3058 H         1 <0>         0.1430
     50 H16         7.9363   -2.3266    1.4448 H         1 <0>         0.1413
     51 H17         8.5025   -4.4791    2.3095 H         1 <0>         0.1318
     52 H18         7.1035   -5.0873    1.3936 H         1 <0>         0.1284
     53 H19         8.6770   -6.9245    1.9421 H         1 <0>         0.1131
     54 H20         8.5835   -6.6671    0.1825 H         1 <0>         0.0879
     55 H21        10.7491   -5.5970    2.0508 H         1 <0>         0.0827
     56 H22        10.9369   -6.9127    0.8647 H         1 <0>         0.0952
     57 H23        11.7859   -4.7245   -0.0062 H         1 <0>         0.1141
     58 H24        10.4341   -5.3575   -0.9773 H         1 <0>         0.0882
     59 H25        10.1382   -2.9398   -0.5082 H         1 <0>         0.1324
     60 H26        10.2111   -3.2700    1.2388 H         1 <0>         0.1306
     61 H27        -0.4178   -2.1785   -7.0128 H         1 <0>         0.3985
     62 H28         8.2333   -4.3997   -0.6103 H         1 <0>         0.4233
@<TRIPOS>BOND
     1    1    6 ar
     2    1    2 ar
     3    1   35 1
     4    2    3 ar
     5    2   36 1
     6    3    4 ar
     7    3   34 1
     8    4    5 ar
     9    4   37 1
    10    5    6 ar
    11    5   38 1
    12    6    7 1
    13    7   15 1
    14    7    8 2
    15    8    9 1
    16    8   17 1
    17    9   14 ar
    18    9   10 ar
    19   10   11 ar
    20   10   39 1
    21   11   12 ar
    22   11   40 1
    23   12   13 ar
    24   12   16 1
    25   13   14 ar
    26   13   41 1
    27   14   15 1
    28   16   42 1
    29   17   18 2
    30   17   19 1
    31   19   24 ar
    32   19   20 ar
    33   20   21 ar
    34   20   43 1
    35   21   22 ar
    36   21   44 1
    37   22   23 ar
    38   22   25 1
    39   23   24 ar
    40   23   45 1
    41   24   46 1
    42   25   26 1
    43   26   27 1
    44   26   47 1
    45   26   48 1
    46   27   28 1
    47   27   49 1
    48   27   50 1
    49   28   33 1
    50   28   29 1
    51   28   62 1
    52   29   30 1
    53   29   51 1
    54   29   52 1
    55   30   31 1
    56   30   53 1
    57   30   54 1
    58   31   32 1
    59   31   55 1
    60   31   56 1
    61   32   33 1
    62   32   57 1
    63   32   58 1
    64   33   59 1
    65   33   60 1
    66   34   61 1
@<TRIPOS>MOLECULE
CHEMBL226003
   71    73     0     0     0
SMALL
USER_CHARGES

@<TRIPOS>ATOM
      1 C1         -1.6143    0.8462   -0.1641 C.3       1 <0>        -0.1544
      2 C2         -1.4944   -0.6782   -0.1125 C.3       1 <0>        -0.1261
      3 C3         -0.6220   -1.0812    1.0781 C.3       1 <0>        -0.1213
      4 C4         -0.5022   -2.6056    1.1297 C.3       1 <0>        -0.1212
      5 C5          0.3702   -3.0086    2.3202 C.3       1 <0>        -0.1207
      6 C6          0.4900   -4.5330    2.3718 C.3       1 <0>        -0.1206
      7 C7          1.3624   -4.9360    3.5624 C.3       1 <0>        -0.1205
      8 C8          1.4822   -6.4605    3.6140 C.3       1 <0>        -0.1205
      9 C9          2.3546   -6.8635    4.8045 C.3       1 <0>        -0.1188
     10 C10         2.4745   -8.3879    4.8561 C.3       1 <0>        -0.1163
     11 C11         3.3469   -8.7909    6.0466 C.3       1 <0>        -0.1293
     12 C12         3.4667  -10.3153    6.0982 C.3       1 <0>         0.1295
     13 N1          4.3020  -10.7012    7.2382 N.pl3     1 <0>        -0.7637
     14 C13         4.4672  -12.0321    7.5516 C.2       1 <0>         0.2964
     15 C14         5.0954  -12.9638    6.5997 C.ar      1 <0>        -0.1624
     16 C15         5.5425  -12.5257    5.3521 C.ar      1 <0>        -0.0549
     17 C16         6.1263  -13.4226    4.4848 C.ar      1 <0>        -0.1440
     18 C17         6.2697  -14.7539    4.8466 C.ar      1 <0>        -0.0627
     19 C18         5.8318  -15.1993    6.0760 C.ar      1 <0>        -0.1349
     20 C19         5.2413  -14.3108    6.9654 C.ar      1 <0>         0.1519
     21 O1          4.8080  -14.7299    8.1742 O.3       1 <0>        -0.2747
     22 C20         4.2345  -13.8886    9.0496 C.2       1 <0>         0.5201
     23 O2          3.8613  -14.3193   10.1272 O.2       1 <0>        -0.4607
     24 C21         4.0569  -12.5293    8.7619 C.2       1 <0>        -0.2633
     25 C22         3.4141  -11.6185    9.7759 C.3       1 <0>        -0.0073
     26 C23         1.9153  -11.6885    9.6351 C.ar      1 <0>        -0.0655
     27 C24         1.3509  -12.4228    8.6086 C.ar      1 <0>        -0.1081
     28 C25        -0.0237  -12.4869    8.4794 C.ar      1 <0>        -0.1230
     29 C26        -0.8343  -11.8171    9.3770 C.ar      1 <0>        -0.1215
     30 C27        -0.2702  -11.0837   10.4037 C.ar      1 <0>        -0.1170
     31 C28         1.1048  -11.0231   10.5354 C.ar      1 <0>        -0.0851
     32 C29         1.7198  -10.2277   11.6580 C.3       1 <0>        -0.1182
     33 H1         -0.6227    1.2851   -0.2752 H         1 <0>         0.0533
     34 H2         -2.2358    1.1334   -1.0122 H         1 <0>         0.0536
     35 H3         -2.0696    1.2063    0.7584 H         1 <0>         0.0533
     36 H4         -2.4860   -1.1170   -0.0013 H         1 <0>         0.0603
     37 H5         -1.0391   -1.0383   -1.0350 H         1 <0>         0.0603
     38 H6          0.3695   -0.6423    0.9669 H         1 <0>         0.0605
     39 H7         -1.0774   -0.7211    2.0006 H         1 <0>         0.0606
     40 H8         -1.4938   -3.0444    1.2408 H         1 <0>         0.0606
     41 H9         -0.0468   -2.9657    0.2071 H         1 <0>         0.0605
     42 H10         1.3617   -2.5698    2.2091 H         1 <0>         0.0604
     43 H11        -0.0852   -2.6485    3.2427 H         1 <0>         0.0604
     44 H12        -0.5016   -4.9719    2.4829 H         1 <0>         0.0606
     45 H13         0.9454   -4.8931    1.4493 H         1 <0>         0.0605
     46 H14         2.3540   -4.4972    3.4512 H         1 <0>         0.0604
     47 H15         0.9070   -4.5759    4.4849 H         1 <0>         0.0606
     48 H16         0.4907   -6.8993    3.7251 H         1 <0>         0.0612
     49 H17         1.9376   -6.8206    2.6914 H         1 <0>         0.0610
     50 H18         3.3462   -6.4246    4.6934 H         1 <0>         0.0616
     51 H19         1.8993   -6.5034    5.7270 H         1 <0>         0.0618
     52 H20         1.4829   -8.8267    4.9672 H         1 <0>         0.0649
     53 H21         2.9298   -8.7480    3.9336 H         1 <0>         0.0642
     54 H22         4.3384   -8.3521    5.9355 H         1 <0>         0.0690
     55 H23         2.8915   -8.4308    6.9692 H         1 <0>         0.0707
     56 H24         2.4751  -10.7541    6.2094 H         1 <0>         0.0616
     57 H25         3.9221  -10.6754    5.1757 H         1 <0>         0.0578
     58 H26         4.7388  -10.0193    7.7722 H         1 <0>         0.4073
     59 H27         5.4311  -11.4896    5.0682 H         1 <0>         0.1397
     60 H28         6.4735  -13.0877    3.5185 H         1 <0>         0.1349
     61 H29         6.7286  -15.4486    4.1586 H         1 <0>         0.1404
     62 H30         5.9482  -16.2382    6.3472 H         1 <0>         0.1447
     63 H31         3.6998  -11.9332   10.7796 H         1 <0>         0.0917
     64 H32         3.7474  -10.5945    9.6074 H         1 <0>         0.0858
     65 H33         1.9842  -12.9461    7.9074 H         1 <0>         0.1110
     66 H34        -0.4645  -13.0600    7.6772 H         1 <0>         0.1180
     67 H35        -1.9084  -11.8666    9.2757 H         1 <0>         0.1200
     68 H36        -0.9034  -10.5602   11.1046 H         1 <0>         0.1208
     69 H37         1.8083   -9.1837   11.3576 H         1 <0>         0.0697
     70 H38         1.0872  -10.2988   12.5428 H         1 <0>         0.0671
     71 H39         2.7088  -10.6254   11.8856 H         1 <0>         0.0681
@<TRIPOS>BOND
     1    1    2 1
     2    1   33 1
     3    1   34 1
     4    1   35 1
     5    2    3 1
     6    2   36 1
     7    2   37 1
     8    3    4 1
     9    3   38 1
    10    3   39 1
    11    4    5 1
    12    4   40 1
    13    4   41 1
    14    5    6 1
    15    5   42 1
    16    5   43 1
    17    6    7 1
    18    6   44 1
    19    6   45 1
    20    7    8 1
    21    7   46 1
    22    7   47 1
    23    8    9 1
    24    8   48 1
    25    8   49 1
    26    9   10 1
    27    9   50 1
    28    9   51 1
    29   10   11 1
    30   10   52 1
    31   10   53 1
    32   11   12 1
    33   11   54 1
    34   11   55 1
    35   12   13 1
    36   12   56 1
    37   12   57 1
    38   13   14 1
    39   13   58 1
    40   14   24 2
    41   14   15 1
    42   15   20 ar
    43   15   16 ar
    44   16   17 ar
    45   16   59 1
    46   17   18 ar
    47   17   60 1
    48   18   19 ar
    49   18   61 1
    50   19   20 ar
    51   19   62 1
    52   20   21 1
    53   21   22 1
    54   22   23 2
    55   22   24 1
    56   24   25 1
    57   25   26 1
    58   25   63 1
    59   25   64 1
    60   26   31 ar
    61   26   27 ar
    62   27   28 ar
    63   27   65 1
    64   28   29 ar
    65   28   66 1
    66   29   30 ar
    67   29   67 1
    68   30   31 ar
    69   30   68 1
    70   31   32 1
    71   32   69 1
    72   32   70 1
    73   32   71 1
@<TRIPOS>MOLECULE
CHEMBL1084922
   70    75     0     0     0
SMALL
USER_CHARGES

@<TRIPOS>ATOM
      1 C1         -0.2904    1.5686    0.1117 C.3       1 <0>        -0.0459
      2 N1         -0.1838    0.1038    0.0814 N.4       1 <0>        -0.3880
      3 C2         -1.5296   -0.4843    0.0596 C.3       1 <0>        -0.0025
      4 C3         -1.4190   -2.0098    0.0090 C.3       1 <0>         0.0261
      5 N2         -0.6776   -2.4836    1.1862 N.3       1 <0>        -0.5327
      6 C4          0.6632   -1.8837    1.2349 C.3       1 <0>         0.0192
      7 C5          0.5355   -0.3593    1.2754 C.3       1 <0>        -0.0017
      8 C6         -0.5989   -3.9504    1.2035 C.3       1 <0>         0.0570
      9 C7         -0.0468   -4.4157    2.5524 C.3       1 <0>         0.0593
     10 O1         -0.9700   -4.0744    3.5883 O.3       1 <0>        -0.3008
     11 C8         -0.6286   -4.4198    4.8576 C.ar      1 <0>         0.1321
     12 C9          0.5731   -5.0687    5.1016 C.ar      1 <0>        -0.2086
     13 C10         0.9182   -5.4184    6.3928 C.ar      1 <0>        -0.0572
     14 C11         0.0668   -5.1226    7.4413 C.ar      1 <0>        -0.1438
     15 C12        -1.1316   -4.4763    7.2007 C.ar      1 <0>        -0.0635
     16 C13        -1.4784   -4.1191    5.9121 C.ar      1 <0>        -0.1445
     17 C14         0.4455   -5.5056    8.8488 C.3       1 <0>         0.1921
     18 H1          1.5136   -5.7195    8.8880 H         1 <0>         0.1301
     19 C15        -0.3217   -6.7353    9.2516 C.2       1 <0>        -0.1090
     20 C16        -1.5272   -6.6043    9.8524 C.2       1 <0>        -0.0406
     21 C17        -2.2841   -7.8329   10.2769 C.3       1 <0>        -0.1212
     22 C18        -2.8639   -8.5522    9.0604 C.3       1 <0>         0.0751
     23 O2         -1.9077   -8.6467    8.0130 O.3       1 <0>        -0.3230
     24 C19        -0.6430   -9.0137    8.3435 C.ar      1 <0>         0.1334
     25 C20         0.1992   -8.0796    8.9700 C.ar      1 <0>        -0.0808
     26 C21         1.5020   -8.4376    9.3129 C.ar      1 <0>        -0.0758
     27 C22         1.9569   -9.7105    9.0371 C.ar      1 <0>        -0.1496
     28 C23         1.1221  -10.6339    8.4202 C.ar      1 <0>         0.1301
     29 C24        -0.1768  -10.2854    8.0742 C.ar      1 <0>        -0.1585
     30 O3          1.5793  -11.8853    8.1539 O.3       1 <0>        -0.4957
     31 C25        -2.0504   -5.2522   10.0886 C.ar      1 <0>        -0.1284
     32 C26        -3.3919   -5.0250   10.3856 C.ar      1 <0>        -0.0553
     33 C27        -3.8351   -3.7359   10.5990 C.ar      1 <0>        -0.1685
     34 C28        -2.9491   -2.6684   10.5178 C.ar      1 <0>         0.1475
     35 C29        -1.6099   -2.8865   10.2227 C.ar      1 <0>        -0.1742
     36 C30        -1.1533   -4.1719   10.0092 C.ar      1 <0>         0.1503
     37 O4          0.1502   -4.4199    9.7279 O.3       1 <0>        -0.2965
     38 O5         -3.3963   -1.4028   10.7281 O.3       1 <0>        -0.4958
     39 H2          0.7082    2.0053    0.1266 H         1 <0>         0.1242
     40 H3         -0.8241    1.9125   -0.7743 H         1 <0>         0.1245
     41 H4         -0.8343    1.8750    1.0052 H         1 <0>         0.1235
     42 H5         -2.0699   -0.1889    0.9589 H         1 <0>         0.1386
     43 H6         -2.0669   -0.1297   -0.8200 H         1 <0>         0.1364
     44 H7         -2.4175   -2.4469    0.0078 H         1 <0>         0.1250
     45 H8         -0.8907   -2.3063   -0.8971 H         1 <0>         0.0607
     46 H9          1.1839   -2.2288    2.1282 H         1 <0>         0.1224
     47 H10         1.2258   -2.1781    0.3490 H         1 <0>         0.0616
     48 H11         1.5292    0.0881    1.2972 H         1 <0>         0.1359
     49 H12        -0.0154   -0.0644    2.1686 H         1 <0>         0.1386
     50 H13        -1.5940   -4.3694    1.0542 H         1 <0>         0.1024
     51 H14         0.0612   -4.2883    0.4046 H         1 <0>         0.0698
     52 H15         0.0952   -5.4962    2.5337 H         1 <0>         0.0760
     53 H16         0.9089   -3.9269    2.7419 H         1 <0>         0.0627
     54 H17         1.2381   -5.3006    4.2829 H         1 <0>         0.1266
     55 H18         1.8535   -5.9236    6.5833 H         1 <0>         0.1275
     56 H19        -1.7951   -4.2467    8.0213 H         1 <0>         0.1328
     57 H20        -2.4126   -3.6103    5.7251 H         1 <0>         0.1304
     58 H21        -1.6092   -8.5064   10.8051 H         1 <0>         0.0854
     59 H22        -3.0960   -7.5425   10.9438 H         1 <0>         0.0949
     60 H23        -3.1733   -9.5556    9.3529 H         1 <0>         0.0649
     61 H24        -3.7337   -8.0020    8.7013 H         1 <0>         0.1031
     62 H25         2.1527   -7.7212    9.7922 H         1 <0>         0.1350
     63 H26         2.9661   -9.9902    9.3014 H         1 <0>         0.1368
     64 H27        -0.8212  -11.0075    7.5949 H         1 <0>         0.1390
     65 H28         1.4279  -12.5196    8.8680 H         1 <0>         0.3966
     66 H29        -4.0818   -5.8535   10.4482 H         1 <0>         0.1360
     67 H30        -4.8746   -3.5558   10.8297 H         1 <0>         0.1370
     68 H31        -0.9268   -2.0523   10.1603 H         1 <0>         0.1411
     69 H32        -3.3493   -1.1173   11.6508 H         1 <0>         0.3984
     70 H33         0.3201   -0.1795   -0.7456 H         1 <0>         0.4219
@<TRIPOS>BOND
     1    1    2 1
     2    1   39 1
     3    1   40 1
     4    1   41 1
     5    2    7 1
     6    2    3 1
     7    2   70 1
     8    3    4 1
     9    3   42 1
    10    3   43 1
    11    4    5 1
    12    4   44 1
    13    4   45 1
    14    5    6 1
    15    5    8 1
    16    6    7 1
    17    6   46 1
    18    6   47 1
    19    7   48 1
    20    7   49 1
    21    8    9 1
    22    8   50 1
    23    8   51 1
    24    9   10 1
    25    9   52 1
    26    9   53 1
    27   10   11 1
    28   11   16 ar
    29   11   12 ar
    30   12   13 ar
    31   12   54 1
    32   13   14 ar
    33   13   55 1
    34   14   15 ar
    35   14   17 1
    36   15   16 ar
    37   15   56 1
    38   16   57 1
    39   17   18 1
    40   17   37 1
    41   17   19 1
    42   19   25 1
    43   19   20 2
    44   20   21 1
    45   20   31 1
    46   21   22 1
    47   21   58 1
    48   21   59 1
    49   22   23 1
    50   22   60 1
    51   22   61 1
    52   23   24 1
    53   24   29 ar
    54   24   25 ar
    55   25   26 ar
    56   26   27 ar
    57   26   62 1
    58   27   28 ar
    59   27   63 1
    60   28   29 ar
    61   28   30 1
    62   29   64 1
    63   30   65 1
    64   31   36 ar
    65   31   32 ar
    66   32   33 ar
    67   32   66 1
    68   33   34 ar
    69   33   67 1
    70   34   35 ar
    71   34   38 1
    72   35   36 ar
    73   35   68 1
    74   36   37 1
    75   38   69 1
@<TRIPOS>MOLECULE
CHEMBL1083194
   62    67     0     0     0
SMALL
USER_CHARGES

@<TRIPOS>ATOM
      1 C1         -0.0164    1.3773   -0.0547 C.ar      1 <0>        -0.0582
      2 C2          1.1697    2.0854   -0.0624 C.ar      1 <0>        -0.1470
      3 C3          2.3801    1.4093   -0.0131 C.ar      1 <0>         0.1384
      4 C4          2.3960    0.0233    0.0439 C.ar      1 <0>        -0.2049
      5 C5          1.2071   -0.6802    0.0513 C.ar      1 <0>        -0.0633
      6 C6          0.0021   -0.0041    0.0020 C.ar      1 <0>        -0.1521
      7 C7         -1.2934   -0.7740    0.0107 C.3       1 <0>         0.1936
      8 H1         -2.0997   -0.1244   -0.3298 H         1 <0>         0.1304
      9 C8         -1.5866   -1.2357    1.4120 C.2       1 <0>        -0.1053
     10 C9         -1.1299   -2.4395    1.8287 C.2       1 <0>        -0.0449
     11 C10        -1.4430   -2.9122    3.2220 C.3       1 <0>        -0.1192
     12 C11        -0.6172   -2.1389    4.2485 C.3       1 <0>         0.0752
     13 O1         -0.6164   -0.7458    3.9658 O.3       1 <0>        -0.3220
     14 C12        -1.7993   -0.1682    3.6334 C.ar      1 <0>         0.1340
     15 C13        -2.3300   -0.3844    2.3504 C.ar      1 <0>        -0.0788
     16 C14        -3.5413    0.2038    1.9903 C.ar      1 <0>        -0.0753
     17 C15        -4.2148    0.9944    2.8985 C.ar      1 <0>        -0.1494
     18 C16        -3.6902    1.2050    4.1675 C.ar      1 <0>         0.1283
     19 C17        -2.4836    0.6237    4.5343 C.ar      1 <0>        -0.1583
     20 O2         -4.3618    1.9843    5.0550 O.3       1 <0>        -0.4952
     21 C18        -0.3531   -3.2590    0.8892 C.ar      1 <0>        -0.1276
     22 C19         0.4240   -4.3318    1.3187 C.ar      1 <0>        -0.0572
     23 C20         1.1362   -5.0712    0.3969 C.ar      1 <0>        -0.1702
     24 C21         1.0801   -4.7483   -0.9535 C.ar      1 <0>         0.1466
     25 C22         0.3073   -3.6806   -1.3900 C.ar      1 <0>        -0.1740
     26 C23        -0.4119   -2.9340   -0.4780 C.ar      1 <0>         0.1529
     27 O3         -1.1834   -1.8906   -0.8725 O.3       1 <0>        -0.2967
     28 O4          1.7866   -5.4821   -1.8527 O.3       1 <0>        -0.4947
     29 O5          3.5484    2.1036   -0.0209 O.3       1 <0>        -0.3034
     30 C24         4.7562    1.3418    0.0319 C.3       1 <0>         0.0409
     31 C25         5.9577    2.2889    0.0142 C.3       1 <0>         0.1024
     32 N1          5.9578    3.1005    1.2338 N.am      1 <0>        -0.5740
     33 C26         5.3301    4.2799    1.3192 C.2       1 <0>         0.5267
     34 O6          4.7023    4.8075    0.4264 O.2       1 <0>        -0.4639
     35 C27         5.5279    4.8497    2.7069 C.3       1 <0>        -0.1579
     36 C28         6.3879    3.7839    3.4162 C.3       1 <0>        -0.1573
     37 C29         6.5808    2.7212    2.3564 C.2       1 <0>         0.5257
     38 O7          7.2032    1.6909    2.5003 O.2       1 <0>        -0.4832
     39 H2         -0.9591    1.9033   -0.0886 H         1 <0>         0.1309
     40 H3          1.1547    3.1644   -0.1071 H         1 <0>         0.1339
     41 H4          3.3370   -0.5053    0.0820 H         1 <0>         0.1268
     42 H5          1.2189   -1.7592    0.0956 H         1 <0>         0.1271
     43 H6         -2.5030   -2.7588    3.4241 H         1 <0>         0.0843
     44 H7         -1.2123   -3.9745    3.3016 H         1 <0>         0.0936
     45 H8         -1.0379   -2.3016    5.2408 H         1 <0>         0.0636
     46 H9          0.4086   -2.5071    4.2319 H         1 <0>         0.1022
     47 H10        -3.9507    0.0417    1.0041 H         1 <0>         0.1354
     48 H11        -5.1532    1.4517    2.6216 H         1 <0>         0.1363
     49 H12        -2.0808    0.7910    5.5223 H         1 <0>         0.1384
     50 H13        -4.9888    1.4992    5.6087 H         1 <0>         0.3944
     51 H14         0.4693   -4.5834    2.3680 H         1 <0>         0.1346
     52 H15         1.7399   -5.9040    0.7262 H         1 <0>         0.1358
     53 H16         0.2687   -3.4345   -2.4409 H         1 <0>         0.1417
     54 H17         1.3004   -6.2360   -2.2138 H         1 <0>         0.3966
     55 H18         4.7731    0.7505    0.9474 H         1 <0>         0.0691
     56 H19         4.8046    0.6773   -0.8308 H         1 <0>         0.0827
     57 H20         6.8782    1.7071   -0.0352 H         1 <0>         0.1168
     58 H21         5.8932    2.9414   -0.8565 H         1 <0>         0.1072
     59 H22         6.0582    5.8008    2.6591 H         1 <0>         0.1218
     60 H23         4.5698    4.9686    3.2130 H         1 <0>         0.1213
     61 H24         7.3460    4.2048    3.7212 H         1 <0>         0.1229
     62 H25         5.8576    3.3725    4.2751 H         1 <0>         0.1212
@<TRIPOS>BOND
     1    1    6 ar
     2    1    2 ar
     3    1   39 1
     4    2    3 ar
     5    2   40 1
     6    3    4 ar
     7    3   29 1
     8    4    5 ar
     9    4   41 1
    10    5    6 ar
    11    5   42 1
    12    6    7 1
    13    7    8 1
    14    7   27 1
    15    7    9 1
    16    9   15 1
    17    9   10 2
    18   10   11 1
    19   10   21 1
    20   11   12 1
    21   11   43 1
    22   11   44 1
    23   12   13 1
    24   12   45 1
    25   12   46 1
    26   13   14 1
    27   14   19 ar
    28   14   15 ar
    29   15   16 ar
    30   16   17 ar
    31   16   47 1
    32   17   18 ar
    33   17   48 1
    34   18   19 ar
    35   18   20 1
    36   19   49 1
    37   20   50 1
    38   21   26 ar
    39   21   22 ar
    40   22   23 ar
    41   22   51 1
    42   23   24 ar
    43   23   52 1
    44   24   25 ar
    45   24   28 1
    46   25   26 ar
    47   25   53 1
    48   26   27 1
    49   28   54 1
    50   29   30 1
    51   30   31 1
    52   30   55 1
    53   30   56 1
    54   31   32 1
    55   31   57 1
    56   31   58 1
    57   32   37 am
    58   32   33 am
    59   33   34 2
    60   33   35 1
    61   35   36 1
    62   35   59 1
    63   35   60 1
    64   36   37 1
    65   36   61 1
    66   36   62 1
    67   37   38 2
@<TRIPOS>MOLECULE
CHEMBL150492
   63    67     0     0     0
SMALL
USER_CHARGES

@<TRIPOS>ATOM
      1 C1         -1.5653   -1.0545    3.5568 C.ar      1 <0>        -0.0734
      2 C2         -1.1913   -1.3779    4.8424 C.ar      1 <0>        -0.1438
      3 C3         -0.8579   -2.6883    5.1624 C.ar      1 <0>         0.1254
      4 C4         -0.9000   -3.6782    4.1882 C.ar      1 <0>        -0.1418
      5 C5         -1.2727   -3.3641    2.8999 C.ar      1 <0>        -0.0719
      6 C6         -1.6090   -2.0471    2.5732 C.ar      1 <0>        -0.0410
      7 C7         -2.0087   -1.7059    1.1958 C.2       1 <0>        -0.0551
      8 C8         -1.3869   -2.0605    0.0057 C.2       1 <0>        -0.1601
      9 C9         -1.9855   -1.5929   -1.2470 C.ar      1 <0>        -0.0731
     10 C10        -1.5382   -1.8230   -2.5677 C.ar      1 <0>        -0.0598
     11 C11        -2.2200   -1.3081   -3.6387 C.ar      1 <0>        -0.1373
     12 C12        -3.3708   -0.5452   -3.4615 C.ar      1 <0>         0.1372
     13 C13        -3.8341   -0.3030   -2.1784 C.ar      1 <0>        -0.1010
     14 C14        -3.1513   -0.8186   -1.0967 C.ar      1 <0>        -0.1020
     15 S1         -3.4099   -0.7461    0.6572 S.3       1 <0>         0.0938
     16 O1         -4.0333   -0.0425   -4.5367 O.3       1 <0>        -0.4909
     17 C15        -0.1716   -2.8752    0.0031 C.2       1 <0>         0.4645
     18 O2         -0.2496   -4.0849   -0.1167 O.2       1 <0>        -0.4397
     19 C16         1.1491   -2.2311    0.1457 C.ar      1 <0>        -0.2053
     20 C17         1.2356   -0.8590    0.3988 C.ar      1 <0>        -0.0097
     21 C18         2.4682   -0.2616    0.5317 C.ar      1 <0>        -0.1946
     22 C19         3.6283   -1.0223    0.4143 C.ar      1 <0>         0.2364
     23 C20         3.5455   -2.3889    0.1623 C.ar      1 <0>        -0.2078
     24 C21         2.3157   -2.9931    0.0337 C.ar      1 <0>        -0.0097
     25 N1          4.8727   -0.4155    0.5487 N.pl3     1 <0>        -0.7415
     26 C22         6.0944   -1.2145    0.4255 C.3       1 <0>         0.1008
     27 C23         7.3153   -0.3117    0.6136 C.3       1 <0>        -0.0212
     28 N2          8.5404   -1.1129    0.4900 N.4       1 <0>        -0.3787
     29 C24         8.5969   -2.0896    1.5843 C.3       1 <0>        -0.0148
     30 C25         9.8294   -2.9805    1.4147 C.3       1 <0>        -0.1458
     31 C26        11.0891   -2.1099    1.4399 C.3       1 <0>        -0.1401
     32 C27        10.9854   -1.0475    0.3419 C.3       1 <0>        -0.1462
     33 C28         9.7100   -0.2283    0.5512 C.3       1 <0>        -0.0060
     34 O3         -0.4894   -3.0025    6.4311 O.3       1 <0>        -0.4989
     35 H1         -1.8285   -0.0366    3.3099 H         1 <0>         0.1345
     36 H2         -1.1568   -0.6117    5.6028 H         1 <0>         0.1373
     37 H3         -0.6397   -4.6953    4.4413 H         1 <0>         0.1365
     38 H4         -1.3048   -4.1341    2.1432 H         1 <0>         0.1341
     39 H5         -0.6481   -2.4115   -2.7347 H         1 <0>         0.1275
     40 H6         -1.8579   -1.4972   -4.6385 H         1 <0>         0.1387
     41 H7         -4.7254    0.2875   -2.0259 H         1 <0>         0.1425
     42 H8         -4.7168   -0.6298   -4.8874 H         1 <0>         0.3992
     43 H9          0.3360   -0.2683    0.4896 H         1 <0>         0.1324
     44 H10         2.5357    0.7984    0.7268 H         1 <0>         0.1307
     45 H11         4.4472   -2.9763    0.0715 H         1 <0>         0.1238
     46 H12         2.2520   -4.0541   -0.1577 H         1 <0>         0.1372
     47 H13         4.9315    0.5368    0.7240 H         1 <0>         0.4087
     48 H14         6.0976   -1.9934    1.1880 H         1 <0>         0.0830
     49 H15         6.1304   -1.6732   -0.5626 H         1 <0>         0.0828
     50 H16         7.3121    0.4672   -0.1489 H         1 <0>         0.1384
     51 H17         7.2792    0.1470    1.6017 H         1 <0>         0.1369
     52 H18         8.6574   -1.5639    2.5372 H         1 <0>         0.1309
     53 H19         7.6983   -2.7063    1.5670 H         1 <0>         0.1317
     54 H20         9.8705   -3.7038    2.2291 H         1 <0>         0.1137
     55 H21         9.7697   -3.5069    0.4622 H         1 <0>         0.0888
     56 H22        11.1763   -1.6230    2.4112 H         1 <0>         0.0823
     57 H23        11.9660   -2.7326    1.2630 H         1 <0>         0.0955
     58 H24        11.8528   -0.3891    0.3894 H         1 <0>         0.1138
     59 H25        10.9497   -1.5338   -0.6330 H         1 <0>         0.0886
     60 H26         9.6332    0.5293   -0.2288 H         1 <0>         0.1314
     61 H27         9.7469    0.2578    1.5261 H         1 <0>         0.1298
     62 H28        -1.2262   -3.2582    7.0028 H         1 <0>         0.3979
     63 H29         8.5345   -1.6005   -0.3933 H         1 <0>         0.4245
@<TRIPOS>BOND
     1    1    6 ar
     2    1    2 ar
     3    1   35 1
     4    2    3 ar
     5    2   36 1
     6    3    4 ar
     7    3   34 1
     8    4    5 ar
     9    4   37 1
    10    5    6 ar
    11    5   38 1
    12    6    7 1
    13    7   15 1
    14    7    8 2
    15    8    9 1
    16    8   17 1
    17    9   14 ar
    18    9   10 ar
    19   10   11 ar
    20   10   39 1
    21   11   12 ar
    22   11   40 1
    23   12   13 ar
    24   12   16 1
    25   13   14 ar
    26   13   41 1
    27   14   15 1
    28   16   42 1
    29   17   18 2
    30   17   19 1
    31   19   24 ar
    32   19   20 ar
    33   20   21 ar
    34   20   43 1
    35   21   22 ar
    36   21   44 1
    37   22   23 ar
    38   22   25 1
    39   23   24 ar
    40   23   45 1
    41   24   46 1
    42   25   26 1
    43   25   47 1
    44   26   27 1
    45   26   48 1
    46   26   49 1
    47   27   28 1
    48   27   50 1
    49   27   51 1
    50   28   33 1
    51   28   29 1
    52   28   63 1
    53   29   30 1
    54   29   52 1
    55   29   53 1
    56   30   31 1
    57   30   54 1
    58   30   55 1
    59   31   32 1
    60   31   56 1
    61   31   57 1
    62   32   33 1
    63   32   58 1
    64   32   59 1
    65   33   60 1
    66   33   61 1
    67   34   62 1
@<TRIPOS>MOLECULE
CHEMBL250110
   51    54     0     0     0
SMALL
USER_CHARGES

@<TRIPOS>ATOM
      1 C1         -0.3679    1.4943    0.7882 C.3       1 <0>        -0.1149
      2 C2         -0.2252    0.0210    0.5053 C.2       1 <0>        -0.1177
      3 C3         -0.1811   -0.4486   -0.7510 C.2       1 <0>        -0.1393
      4 C4         -0.0581   -1.9251   -0.8621 C.2       1 <0>        -0.0762
      5 C5          0.8025   -2.4405   -1.7130 C.2       1 <0>        -0.1495
      6 C6          1.0214   -3.9110   -1.8957 C.3       1 <0>        -0.0829
      7 C7         -0.1417   -4.7113   -1.2997 C.3       1 <0>        -0.0734
      8 H1         -1.0335   -4.6055   -1.9174 H         1 <0>         0.0873
      9 C8          0.2641   -6.1710   -1.1977 C.3       1 <0>        -0.0838
     10 H2          1.1343   -6.2763   -0.5498 H         1 <0>         0.0747
     11 C9          0.5042   -6.8889   -2.5305 C.3       1 <0>        -0.1133
     12 C10         0.3168   -8.3849   -2.1581 C.3       1 <0>        -0.1565
     13 C11        -0.5783   -8.4118   -0.8943 C.3       1 <0>         0.1099
     14 H3         -0.0253   -8.8205   -0.0486 H         1 <0>         0.0550
     15 C12        -0.9418   -6.9523   -0.6127 C.3       1 <0>        -0.0562
     16 C13        -1.0636   -6.5438    0.8441 C.3       1 <0>        -0.1012
     17 C14        -1.4289   -5.0527    0.8626 C.3       1 <0>        -0.1229
     18 C15        -0.4072   -4.1887    0.1246 C.3       1 <0>        -0.0657
     19 H4          0.5256   -4.1813    0.6885 H         1 <0>         0.0689
     20 C16        -0.9478   -2.7590    0.0139 C.3       1 <0>        -0.0123
     21 C17        -1.0836   -2.1487    1.4019 C.3       1 <0>        -0.1078
     22 C18        -0.1196   -0.9871    1.6223 C.3       1 <0>        -0.0824
     23 C19        -2.3424   -2.8109   -0.6133 C.3       1 <0>        -0.1433
     24 C20        -2.2178   -6.5889   -1.3746 C.3       1 <0>        -0.1338
     25 O1         -1.7542   -9.1867   -1.1370 O.3       1 <0>        -0.5599
     26 H5          0.6204    1.9498    0.8501 H         1 <0>         0.0680
     27 H6         -0.9353    1.9652   -0.0146 H         1 <0>         0.0636
     28 H7         -0.8921    1.6337    1.7336 H         1 <0>         0.0641
     29 H8         -0.2315    0.1972   -1.6152 H         1 <0>         0.1221
     30 H9          1.3867   -1.7620   -2.3169 H         1 <0>         0.1030
     31 H10         1.1012   -4.1324   -2.9599 H         1 <0>         0.0711
     32 H11         1.9477   -4.2003   -1.3992 H         1 <0>         0.0717
     33 H12        -0.2324   -6.5809   -3.2726 H         1 <0>         0.0699
     34 H13         1.5164   -6.7050   -2.8908 H         1 <0>         0.0663
     35 H14        -0.1730   -8.9152   -2.9748 H         1 <0>         0.0722
     36 H15         1.2831   -8.8405   -1.9419 H         1 <0>         0.0668
     37 H16        -1.8479   -7.1250    1.3290 H         1 <0>         0.0660
     38 H17        -0.1135   -6.7003    1.3549 H         1 <0>         0.0619
     39 H18        -2.4007   -4.9206    0.3869 H         1 <0>         0.0741
     40 H19        -1.4950   -4.7174    1.8977 H         1 <0>         0.0622
     41 H20        -2.1055   -1.7924    1.5322 H         1 <0>         0.0648
     42 H21        -0.8826   -2.9184    2.1470 H         1 <0>         0.0701
     43 H22         0.9007   -1.3684    1.6642 H         1 <0>         0.0705
     44 H23        -0.3567   -0.4991    2.5677 H         1 <0>         0.0665
     45 H24        -2.2972   -3.3586   -1.5547 H         1 <0>         0.0578
     46 H25        -3.0285   -3.3146    0.0676 H         1 <0>         0.0614
     47 H26        -2.6949   -1.7964   -0.7997 H         1 <0>         0.0551
     48 H27        -2.0988   -6.8473   -2.4269 H         1 <0>         0.0533
     49 H28        -3.0598   -7.1415   -0.9578 H         1 <0>         0.0586
     50 H29        -2.4040   -5.5189   -1.2821 H         1 <0>         0.0610
     51 H30        -1.5776  -10.1133   -1.3500 H         1 <0>         0.3750
@<TRIPOS>BOND
     1    1    2 1
     2    1   26 1
     3    1   27 1
     4    1   28 1
     5    2   22 1
     6    2    3 2
     7    3    4 1
     8    3   29 1
     9    4   20 1
    10    4    5 2
    11    5    6 1
    12    5   30 1
    13    6    7 1
    14    6   31 1
    15    6   32 1
    16    7    8 1
    17    7   18 1
    18    7    9 1
    19    9   10 1
    20    9   15 1
    21    9   11 1
    22   11   12 1
    23   11   33 1
    24   11   34 1
    25   12   13 1
    26   12   35 1
    27   12   36 1
    28   13   14 1
    29   13   15 1
    30   13   25 1
    31   15   16 1
    32   15   24 1
    33   16   17 1
    34   16   37 1
    35   16   38 1
    36   17   18 1
    37   17   39 1
    38   17   40 1
    39   18   19 1
    40   18   20 1
    41   20   21 1
    42   20   23 1
    43   21   22 1
    44   21   41 1
    45   21   42 1
    46   22   43 1
    47   22   44 1
    48   23   45 1
    49   23   46 1
    50   23   47 1
    51   24   48 1
    52   24   49 1
    53   24   50 1
    54   25   51 1
@<TRIPOS>MOLECULE
CHEMBL424725
   75    81     0     0     0
SMALL
USER_CHARGES

@<TRIPOS>ATOM
      1 C1          0.0174    1.3559   -0.7984 C.ar      1 <0>        -0.1183
      2 C2          1.2071    2.0595   -0.8237 C.ar      1 <0>        -0.1151
      3 C3          2.4112    1.3838   -0.7581 C.ar      1 <0>        -0.1164
      4 C4          2.4257    0.0045   -0.6667 C.ar      1 <0>        -0.0826
      5 C5          1.2361   -0.6990   -0.6405 C.ar      1 <0>        -0.1168
      6 C6          0.0319   -0.0234   -0.7075 C.ar      1 <0>        -0.1149
      7 C7          3.7385   -0.7322   -0.5961 C.3       1 <0>        -0.0602
      8 C8          4.1588   -0.8864    0.8669 C.3       1 <0>        -0.0294
      9 C9          4.3183    0.4736    1.5502 C.3       1 <0>        -0.1091
     10 C10         5.4538    1.2400    0.8651 C.3       1 <0>        -0.1669
     11 C11         6.7346    0.4504    0.9257 C.2       1 <0>         0.3984
     12 O1          7.8019    1.0288    0.9189 O.2       1 <0>        -0.4541
     13 C12         6.6984   -1.0145    0.9934 C.2       1 <0>        -0.1703
     14 C13         5.4811   -1.6252    0.9958 C.2       1 <0>         0.0471
     15 C14         5.1528   -3.0424    1.1525 C.ar      1 <0>        -0.1377
     16 C15         5.9228   -4.2028    0.9278 C.ar      1 <0>        -0.0241
     17 C16         5.4231   -5.4361    1.2044 C.ar      1 <0>        -0.1512
     18 C17         4.1288   -5.5749    1.7087 C.ar      1 <0>         0.1533
     19 C18         3.3295   -4.4303    1.9050 C.ar      1 <0>        -0.1749
     20 C19         3.8393   -3.1652    1.6104 C.ar      1 <0>         0.0267
     21 C20         3.1896   -1.7970    1.6411 C.3       1 <0>        -0.0866
     22 C21         2.0486   -4.9090    2.4195 C.2       1 <0>         0.0874
     23 N1          2.1184   -6.2059    2.5111 N.2       1 <0>        -0.2437
     24 N2          3.3745   -6.6514    2.0878 N.pl3     1 <0>        -0.5048
     25 H1          3.6646   -7.5768    2.0659 H         1 <0>         0.4430
     26 C22         7.9493   -1.8064    1.0574 C.ar      1 <0>        -0.0401
     27 C23         8.2398   -2.5638    2.1919 C.ar      1 <0>        -0.0609
     28 C24         9.4045   -3.2999    2.2479 C.ar      1 <0>        -0.1399
     29 C25        10.2876   -3.2876    1.1766 C.ar      1 <0>         0.1122
     30 C26        10.0015   -2.5347    0.0457 C.ar      1 <0>        -0.1999
     31 C27         8.8361   -1.8005   -0.0191 C.ar      1 <0>        -0.0555
     32 O2         11.4346   -4.0138    1.2352 O.3       1 <0>        -0.3286
     33 C28        12.2980   -3.9558    0.0980 C.3       1 <0>         0.0255
     34 C29        13.5287   -4.8301    0.3469 C.3       1 <0>        -0.0011
     35 N3         13.1136   -6.2327    0.4825 N.4       1 <0>        -0.3839
     36 C30        14.2696   -7.0477    0.8749 C.3       1 <0>        -0.0072
     37 C31        13.8261   -8.4954    1.0963 C.3       1 <0>        -0.1466
     38 C32        13.2293   -9.0451   -0.2025 C.3       1 <0>        -0.1390
     39 C33        12.0715   -8.1442   -0.6420 C.3       1 <0>        -0.1450
     40 C34        12.5800   -6.7095   -0.7990 C.3       1 <0>        -0.0133
     41 H2         -0.9234    1.8841   -0.8452 H         1 <0>         0.1228
     42 H3          1.1958    3.1371   -0.8952 H         1 <0>         0.1234
     43 H4          3.3407    1.9334   -0.7786 H         1 <0>         0.1214
     44 H5          1.2474   -1.7766   -0.5694 H         1 <0>         0.1214
     45 H6         -0.8975   -0.5730   -0.6874 H         1 <0>         0.1231
     46 H7          3.6267   -1.7179   -1.0479 H         1 <0>         0.0812
     47 H8          4.5003   -0.1695   -1.1357 H         1 <0>         0.0803
     48 H9          3.3903    1.0384    1.4609 H         1 <0>         0.0920
     49 H10         4.5594    0.3274    2.6031 H         1 <0>         0.0775
     50 H11         5.1899    1.4179   -0.1774 H         1 <0>         0.1052
     51 H12         5.5967    2.1965    1.3677 H         1 <0>         0.1024
     52 H13         6.9227   -4.1099    0.5303 H         1 <0>         0.1278
     53 H14         6.0300   -6.3129    1.0330 H         1 <0>         0.1287
     54 H15         3.0823   -1.4506    2.6690 H         1 <0>         0.0998
     55 H16         2.2189   -1.8264    1.1462 H         1 <0>         0.1020
     56 H17         1.1971   -4.2970    2.6780 H         1 <0>         0.2013
     57 H18         7.5535   -2.5735    3.0257 H         1 <0>         0.1336
     58 H19         9.6302   -3.8864    3.1262 H         1 <0>         0.1332
     59 H20        10.6908   -2.5270   -0.7858 H         1 <0>         0.1280
     60 H21         8.6121   -1.2185   -0.9009 H         1 <0>         0.1290
     61 H22        11.7659   -4.3193   -0.7811 H         1 <0>         0.0860
     62 H23        12.6120   -2.9252   -0.0677 H         1 <0>         0.1097
     63 H24        14.2179   -4.7346   -0.4921 H         1 <0>         0.1487
     64 H25        14.0242   -4.5077    1.2627 H         1 <0>         0.1426
     65 H26        15.0212   -7.0150    0.0861 H         1 <0>         0.1292
     66 H27        14.6952   -6.6534    1.7976 H         1 <0>         0.1311
     67 H28        14.6861   -9.0993    1.3858 H         1 <0>         0.1129
     68 H29        13.0746   -8.5293    1.8851 H         1 <0>         0.0877
     69 H30        13.9950   -9.0591   -0.9782 H         1 <0>         0.0822
     70 H31        12.8604  -10.0569   -0.0345 H         1 <0>         0.0943
     71 H32        11.6774   -8.4970   -1.5951 H         1 <0>         0.1119
     72 H33        11.2836   -8.1708    0.1107 H         1 <0>         0.0874
     73 H34        11.7582   -6.0655   -1.1121 H         1 <0>         0.1276
     74 H35        13.3676   -6.6840   -1.5521 H         1 <0>         0.1301
     75 H36        12.3985   -6.3038    1.1908 H         1 <0>         0.4293
@<TRIPOS>BOND
     1    1    6 ar
     2    1    2 ar
     3    1   41 1
     4    2    3 ar
     5    2   42 1
     6    3    4 ar
     7    3   43 1
     8    4    5 ar
     9    4    7 1
    10    5    6 ar
    11    5   44 1
    12    6   45 1
    13    7    8 1
    14    7   46 1
    15    7   47 1
    16    8   14 1
    17    8   21 1
    18    8    9 1
    19    9   10 1
    20    9   48 1
    21    9   49 1
    22   10   11 1
    23   10   50 1
    24   10   51 1
    25   11   12 2
    26   11   13 1
    27   13   14 2
    28   13   26 1
    29   14   15 1
    30   15   20 ar
    31   15   16 ar
    32   16   17 ar
    33   16   52 1
    34   17   18 ar
    35   17   53 1
    36   18   24 1
    37   18   19 ar
    38   19   20 ar
    39   19   22 1
    40   20   21 1
    41   21   54 1
    42   21   55 1
    43   22   23 2
    44   22   56 1
    45   23   24 1
    46   24   25 1
    47   26   31 ar
    48   26   27 ar
    49   27   28 ar
    50   27   57 1
    51   28   29 ar
    52   28   58 1
    53   29   30 ar
    54   29   32 1
    55   30   31 ar
    56   30   59 1
    57   31   60 1
    58   32   33 1
    59   33   34 1
    60   33   61 1
    61   33   62 1
    62   34   35 1
    63   34   63 1
    64   34   64 1
    65   35   40 1
    66   35   36 1
    67   35   75 1
    68   36   37 1
    69   36   65 1
    70   36   66 1
    71   37   38 1
    72   37   67 1
    73   37   68 1
    74   38   39 1
    75   38   69 1
    76   38   70 1
    77   39   40 1
    78   39   71 1
    79   39   72 1
    80   40   73 1
    81   40   74 1
@<TRIPOS>MOLECULE
CHEMBL424725__1
   75    81     0     0     0
SMALL
USER_CHARGES

@<TRIPOS>ATOM
      1 C1          0.0211    1.3618   -0.7967 C.ar      1 <0>        -0.1186
      2 C2          1.2111    2.0647   -0.8222 C.ar      1 <0>        -0.1148
      3 C3          2.4149    1.3884   -0.7568 C.ar      1 <0>        -0.1155
      4 C4          2.4287    0.0091   -0.6653 C.ar      1 <0>        -0.0816
      5 C5          1.2386   -0.6938   -0.6388 C.ar      1 <0>        -0.1174
      6 C6          0.0349   -0.0175   -0.7057 C.ar      1 <0>        -0.1158
      7 C7          3.7410   -0.7283   -0.5950 C.3       1 <0>        -0.0598
      8 C8          4.1615   -0.8827    0.8680 C.3       1 <0>        -0.0311
      9 C9          4.3284    0.4765    1.5529 C.3       1 <0>        -0.1088
     10 C10         5.4864    1.2225    0.8830 C.3       1 <0>        -0.1687
     11 C11         6.7532    0.4137    0.9539 C.2       1 <0>         0.3975
     12 O1          7.8265    0.9812    0.9649 O.2       1 <0>        -0.4605
     13 C12         6.7100   -1.0061    1.0088 C.2       1 <0>        -0.1839
     14 C13         5.4836   -1.6221    1.0006 C.2       1 <0>         0.0608
     15 C14         5.1546   -3.0392    1.1483 C.ar      1 <0>        -0.1419
     16 C15         5.9364   -4.1972    0.8990 C.ar      1 <0>        -0.0346
     17 C16         5.4758   -5.4389    1.1511 C.ar      1 <0>        -0.1117
     18 C17         4.1754   -5.6196    1.6776 C.ar      1 <0>         0.1243
     19 C18         3.3357   -4.4338    1.9135 C.ar      1 <0>        -0.2071
     20 C19         3.8487   -3.1609    1.6115 C.ar      1 <0>         0.0360
     21 C20         3.1952   -1.7941    1.6448 C.3       1 <0>        -0.0884
     22 C21         2.1342   -4.9020    2.4234 C.2       1 <0>         0.1092
     23 N1          2.2138   -6.2362    2.4989 N.pl3     1 <0>        -0.4180
     24 N2          3.4637   -6.6682    2.0416 N.2       1 <0>        -0.3029
     25 H1          1.5086   -6.8180    2.8230 H         1 <0>         0.4494
     26 C22         7.9586   -1.8015    1.0726 C.ar      1 <0>        -0.0362
     27 C23         8.2419   -2.5681    2.2029 C.ar      1 <0>        -0.0605
     28 C24         9.4045   -3.3075    2.2588 C.ar      1 <0>        -0.1394
     29 C25        10.2926   -3.2895    1.1917 C.ar      1 <0>         0.1112
     30 C26        10.0137   -2.5276    0.0651 C.ar      1 <0>        -0.2001
     31 C27         8.8504   -1.7899    0.0003 C.ar      1 <0>        -0.0557
     32 O2         11.4376   -4.0190    1.2503 O.3       1 <0>        -0.3287
     33 C28        12.3064   -3.9548    0.1175 C.3       1 <0>         0.0256
     34 C29        13.5337   -4.8341    0.3656 C.3       1 <0>        -0.0010
     35 N3         13.1145   -6.2366    0.4889 N.4       1 <0>        -0.3839
     36 C30        14.2666   -7.0574    0.8806 C.3       1 <0>        -0.0071
     37 C31        13.8185   -8.5056    1.0892 C.3       1 <0>        -0.1467
     38 C32        13.2263   -9.0441   -0.2164 C.3       1 <0>        -0.1388
     39 C33        12.0729   -8.1371   -0.6546 C.3       1 <0>        -0.1453
     40 C34        12.5856   -6.7026   -0.7986 C.3       1 <0>        -0.0131
     41 H2         -0.9195    1.8905   -0.8433 H         1 <0>         0.1227
     42 H3          1.2003    3.1423   -0.8937 H         1 <0>         0.1236
     43 H4          3.3446    1.9375   -0.7775 H         1 <0>         0.1220
     44 H5          1.2494   -1.7714   -0.5677 H         1 <0>         0.1206
     45 H6         -0.8949   -0.5666   -0.6854 H         1 <0>         0.1223
     46 H7          3.6286   -1.7139   -1.0466 H         1 <0>         0.0819
     47 H8          4.5031   -0.1661   -1.1346 H         1 <0>         0.0813
     48 H9          3.4106    1.0548    1.4469 H         1 <0>         0.0908
     49 H10         4.5509    0.3289    2.6097 H         1 <0>         0.0769
     50 H11         5.2372    1.4081   -0.1618 H         1 <0>         0.1029
     51 H12         5.6402    2.1754    1.3893 H         1 <0>         0.1004
     52 H13         6.9310   -4.0800    0.4946 H         1 <0>         0.1242
     53 H14         6.1004   -6.2969    0.9505 H         1 <0>         0.1302
     54 H15         3.0900   -1.4480    2.6730 H         1 <0>         0.0987
     55 H16         2.2234   -1.8254    1.1521 H         1 <0>         0.1003
     56 H17         1.2858   -4.2980    2.7092 H         1 <0>         0.1943
     57 H18         7.5518   -2.5823    3.0335 H         1 <0>         0.1328
     58 H19         9.6247   -3.9011    3.1338 H         1 <0>         0.1328
     59 H20        10.7066   -2.5158   -0.7632 H         1 <0>         0.1273
     60 H21         8.6320   -1.2009   -0.8782 H         1 <0>         0.1281
     61 H22        11.7774   -4.3105   -0.7667 H         1 <0>         0.0859
     62 H23        12.6237   -2.9239   -0.0391 H         1 <0>         0.1092
     63 H24        14.2271   -4.7341   -0.4694 H         1 <0>         0.1483
     64 H25        14.0258   -4.5197    1.2861 H         1 <0>         0.1423
     65 H26        15.0219   -7.0208    0.0956 H         1 <0>         0.1288
     66 H27        14.6889   -6.6710    1.8082 H         1 <0>         0.1308
     67 H28        14.6756   -9.1138    1.3782 H         1 <0>         0.1126
     68 H29        13.0633   -8.5434    1.8743 H         1 <0>         0.0880
     69 H30        13.9956   -9.0543   -0.9886 H         1 <0>         0.0818
     70 H31        12.8541  -10.0562   -0.0576 H         1 <0>         0.0943
     71 H32        11.6823   -8.4818   -1.6120 H         1 <0>         0.1120
     72 H33        11.2814   -8.1672    0.0943 H         1 <0>         0.0882
     73 H34        11.7669   -6.0542   -1.1107 H         1 <0>         0.1279
     74 H35        13.3768   -6.6735   -1.5478 H         1 <0>         0.1298
     75 H36        12.3960   -6.3111    1.1933 H         1 <0>         0.4296
@<TRIPOS>BOND
     1    1    6 ar
     2    1    2 ar
     3    1   41 1
     4    2    3 ar
     5    2   42 1
     6    3    4 ar
     7    3   43 1
     8    4    5 ar
     9    4    7 1
    10    5    6 ar
    11    5   44 1
    12    6   45 1
    13    7    8 1
    14    7   46 1
    15    7   47 1
    16    8   14 1
    17    8   21 1
    18    8    9 1
    19    9   10 1
    20    9   48 1
    21    9   49 1
    22   10   11 1
    23   10   50 1
    24   10   51 1
    25   11   12 2
    26   11   13 1
    27   13   14 2
    28   13   26 1
    29   14   15 1
    30   15   20 ar
    31   15   16 ar
    32   16   17 ar
    33   16   52 1
    34   17   18 ar
    35   17   53 1
    36   18   19 ar
    37   18   24 2
    38   19   20 ar
    39   19   22 2
    40   20   21 1
    41   21   54 1
    42   21   55 1
    43   22   56 1
    44   22   23 1
    45   23   25 1
    46   23   24 1
    47   26   31 ar
    48   26   27 ar
    49   27   28 ar
    50   27   57 1
    51   28   29 ar
    52   28   58 1
    53   29   30 ar
    54   29   32 1
    55   30   31 ar
    56   30   59 1
    57   31   60 1
    58   32   33 1
    59   33   34 1
    60   33   61 1
    61   33   62 1
    62   34   35 1
    63   34   63 1
    64   34   64 1
    65   35   40 1
    66   35   36 1
    67   35   75 1
    68   36   37 1
    69   36   65 1
    70   36   66 1
    71   37   38 1
    72   37   67 1
    73   37   68 1
    74   38   39 1
    75   38   69 1
    76   38   70 1
    77   39   40 1
    78   39   71 1
    79   39   72 1
    80   40   73 1
    81   40   74 1
@<TRIPOS>MOLECULE
CHEMBL424725__2
   75    81     0     0     0
SMALL
USER_CHARGES

@<TRIPOS>ATOM
      1 C1         -0.1698    1.3319    0.8300 C.ar      1 <0>        -0.1184
      2 C2          1.0124    2.0404    0.7240 C.ar      1 <0>        -0.1150
      3 C3          2.2157    1.3668    0.6282 C.ar      1 <0>        -0.1168
      4 C4          2.2368   -0.0153    0.6388 C.ar      1 <0>        -0.0824
      5 C5          1.0547   -0.7238    0.7457 C.ar      1 <0>        -0.1163
      6 C6         -0.1487   -0.0502    0.8401 C.ar      1 <0>        -0.1151
      7 C7          3.5485   -0.7497    0.5333 C.3       1 <0>        -0.0612
      8 C8          4.1152   -0.9853    1.9349 C.3       1 <0>        -0.0294
      9 C9          3.1555   -1.8097    2.7959 C.3       1 <0>        -0.1086
     10 C10         2.9971   -3.1976    2.1676 C.3       1 <0>        -0.1671
     11 C11         4.3353   -3.8775    2.0464 C.2       1 <0>         0.3987
     12 O1          4.4011   -5.0895    2.0650 O.2       1 <0>        -0.4541
     13 C12         5.5595   -3.0818    1.9057 C.2       1 <0>        -0.1713
     14 C13         5.4424   -1.7251    1.8862 C.2       1 <0>         0.0468
     15 C14         6.4884   -0.7024    1.8563 C.ar      1 <0>        -0.1371
     16 C15         7.8309   -0.7617    1.4274 C.ar      1 <0>        -0.0361
     17 C16         8.6513    0.3148    1.5517 C.ar      1 <0>        -0.1515
     18 C17         8.1719    1.5063    2.0989 C.ar      1 <0>         0.1526
     19 C18         6.8231    1.5981    2.4986 C.ar      1 <0>        -0.1750
     20 C19         5.9788    0.4956    2.3613 C.ar      1 <0>         0.0264
     21 C20         4.4947    0.3384    2.6217 C.3       1 <0>        -0.0863
     22 C21         6.6383    2.9554    3.0067 C.2       1 <0>         0.0872
     23 N1          7.7798    3.5739    2.9084 N.2       1 <0>        -0.2439
     24 N2          8.7433    2.7216    2.3599 N.pl3     1 <0>        -0.5051
     25 H1          9.6697    2.9550    2.1916 H         1 <0>         0.4429
     26 C22         6.8846   -3.7349    1.7891 C.ar      1 <0>        -0.0374
     27 C23         7.6264   -3.6061    0.6151 C.ar      1 <0>        -0.0699
     28 C24         8.8593   -4.2148    0.5101 C.ar      1 <0>        -0.1419
     29 C25         9.3624   -4.9551    1.5715 C.ar      1 <0>         0.1135
     30 C26         8.6266   -5.0853    2.7417 C.ar      1 <0>        -0.1983
     31 C27         7.3953   -4.4750    2.8553 C.ar      1 <0>        -0.0524
     32 O2         10.5775   -5.5540    1.4646 O.3       1 <0>        -0.3283
     33 C28        11.0346   -6.3003    2.5942 C.3       1 <0>         0.0253
     34 C29        12.4103   -6.8962    2.2890 C.3       1 <0>        -0.0010
     35 N3         13.3801   -5.8114    2.0876 N.4       1 <0>        -0.3838
     36 C30        14.6594   -6.3772    1.6428 C.3       1 <0>        -0.0073
     37 C31        15.6487   -5.2461    1.3536 C.3       1 <0>        -0.1465
     38 C32        15.8667   -4.4275    2.6294 C.3       1 <0>        -0.1390
     39 C33        14.5157   -3.9042    3.1255 C.3       1 <0>        -0.1450
     40 C34        13.5685   -5.0850    3.3490 C.3       1 <0>        -0.0134
     41 H2         -1.1095    1.8582    0.9094 H         1 <0>         0.1227
     42 H3          0.9959    3.1203    0.7157 H         1 <0>         0.1231
     43 H4          3.1393    1.9204    0.5447 H         1 <0>         0.1215
     44 H5          1.0712   -1.8037    0.7537 H         1 <0>         0.1216
     45 H6         -1.0724   -0.6038    0.9233 H         1 <0>         0.1234
     46 H7          3.3895   -1.7085    0.0398 H         1 <0>         0.0811
     47 H8          4.2526   -0.1542   -0.0479 H         1 <0>         0.0818
     48 H9          3.5612   -1.9086    3.8027 H         1 <0>         0.0768
     49 H10         2.1853   -1.3147    2.8377 H         1 <0>         0.0921
     50 H11         2.3413   -3.8029    2.7933 H         1 <0>         0.1025
     51 H12         2.5544   -3.0955    1.1768 H         1 <0>         0.1057
     52 H13         8.2122   -1.6749    0.9948 H         1 <0>         0.1370
     53 H14         9.6786    0.2483    1.2253 H         1 <0>         0.1291
     54 H15         3.9418    1.1675    2.1801 H         1 <0>         0.1022
     55 H16         4.3012    0.2796    3.6928 H         1 <0>         0.0992
     56 H17         5.7198    3.3711    3.3941 H         1 <0>         0.2013
     57 H18         7.2355   -3.0307   -0.2110 H         1 <0>         0.1372
     58 H19         9.4341   -4.1157   -0.3988 H         1 <0>         0.1353
     59 H20         9.0207   -5.6622    3.5652 H         1 <0>         0.1280
     60 H21         6.8255   -4.5730    3.7675 H         1 <0>         0.1288
     61 H22        11.1079   -5.6414    3.4595 H         1 <0>         0.0860
     62 H23        10.3299   -7.1038    2.8081 H         1 <0>         0.1098
     63 H24        12.7300   -7.5189    3.1246 H         1 <0>         0.1487
     64 H25        12.3510   -7.5031    1.3855 H         1 <0>         0.1428
     65 H26        15.0628   -7.0211    2.4244 H         1 <0>         0.1292
     66 H27        14.5021   -6.9622    0.7366 H         1 <0>         0.1312
     67 H28        16.5984   -5.6683    1.0253 H         1 <0>         0.1130
     68 H29        15.2464   -4.6017    0.5720 H         1 <0>         0.0878
     69 H30        16.3166   -5.0591    3.3954 H         1 <0>         0.0822
     70 H31        16.5266   -3.5869    2.4147 H         1 <0>         0.0944
     71 H32        14.6557   -3.3672    4.0637 H         1 <0>         0.1118
     72 H33        14.0899   -3.2320    2.3806 H         1 <0>         0.0875
     73 H34        12.6057   -4.7160    3.7025 H         1 <0>         0.1275
     74 H35        13.9951   -5.7564    4.0942 H         1 <0>         0.1302
     75 H36        13.0325   -5.1772    1.3841 H         1 <0>         0.4292
@<TRIPOS>BOND
     1    1    6 ar
     2    1    2 ar
     3    1   41 1
     4    2    3 ar
     5    2   42 1
     6    3    4 ar
     7    3   43 1
     8    4    5 ar
     9    4    7 1
    10    5    6 ar
    11    5   44 1
    12    6   45 1
    13    7    8 1
    14    7   46 1
    15    7   47 1
    16    8   14 1
    17    8   21 1
    18    8    9 1
    19    9   10 1
    20    9   48 1
    21    9   49 1
    22   10   11 1
    23   10   50 1
    24   10   51 1
    25   11   12 2
    26   11   13 1
    27   13   14 2
    28   13   26 1
    29   14   15 1
    30   15   20 ar
    31   15   16 ar
    32   16   17 ar
    33   16   52 1
    34   17   18 ar
    35   17   53 1
    36   18   24 1
    37   18   19 ar
    38   19   20 ar
    39   19   22 1
    40   20   21 1
    41   21   54 1
    42   21   55 1
    43   22   23 2
    44   22   56 1
    45   23   24 1
    46   24   25 1
    47   26   31 ar
    48   26   27 ar
    49   27   28 ar
    50   27   57 1
    51   28   29 ar
    52   28   58 1
    53   29   30 ar
    54   29   32 1
    55   30   31 ar
    56   30   59 1
    57   31   60 1
    58   32   33 1
    59   33   34 1
    60   33   61 1
    61   33   62 1
    62   34   35 1
    63   34   63 1
    64   34   64 1
    65   35   40 1
    66   35   36 1
    67   35   75 1
    68   36   37 1
    69   36   65 1
    70   36   66 1
    71   37   38 1
    72   37   67 1
    73   37   68 1
    74   38   39 1
    75   38   69 1
    76   38   70 1
    77   39   40 1
    78   39   71 1
    79   39   72 1
    80   40   73 1
    81   40   74 1
@<TRIPOS>MOLECULE
CHEMBL424725__3
   75    81     0     0     0
SMALL
USER_CHARGES

@<TRIPOS>ATOM
      1 C1         -0.1669    1.3382    0.8292 C.ar      1 <0>        -0.1187
      2 C2          1.0157    2.0461    0.7231 C.ar      1 <0>        -0.1159
      3 C3          2.2186    1.3718    0.6274 C.ar      1 <0>        -0.1174
      4 C4          2.2390   -0.0104    0.6383 C.ar      1 <0>        -0.0814
      5 C5          1.0564   -0.7182    0.7454 C.ar      1 <0>        -0.1155
      6 C6         -0.1466   -0.0439    0.8396 C.ar      1 <0>        -0.1148
      7 C7          3.5503   -0.7455    0.5331 C.3       1 <0>        -0.0608
      8 C8          4.1168   -0.9811    1.9346 C.3       1 <0>        -0.0310
      9 C9          3.1609   -1.8099    2.7970 C.3       1 <0>        -0.1083
     10 C10         3.0322   -3.2061    2.1802 C.3       1 <0>        -0.1689
     11 C11         4.3801   -3.8652    2.0677 C.2       1 <0>         0.3979
     12 O1          4.4595   -5.0763    2.1021 O.2       1 <0>        -0.4606
     13 C12         5.5617   -3.0888    1.9213 C.2       1 <0>        -0.1849
     14 C13         5.4441   -1.7217    1.8901 C.2       1 <0>         0.0605
     15 C14         6.4895   -0.6999    1.8509 C.ar      1 <0>        -0.1412
     16 C15         7.8325   -0.7729    1.3980 C.ar      1 <0>        -0.0474
     17 C16         8.6777    0.2730    1.4947 C.ar      1 <0>        -0.1120
     18 C17         8.2351    1.4926    2.0579 C.ar      1 <0>         0.1238
     19 C18         6.8365    1.6005    2.5043 C.ar      1 <0>        -0.2069
     20 C19         5.9849    0.4920    2.3604 C.ar      1 <0>         0.0356
     21 C20         4.5002    0.3406    2.6232 C.3       1 <0>        -0.0881
     22 C21         6.6850    2.8843    3.0057 C.2       1 <0>         0.1087
     23 N1          7.8616    3.5117    2.8865 N.pl3     1 <0>        -0.4181
     24 N2          8.8044    2.6557    2.3067 N.2       1 <0>        -0.3034
     25 H1          8.0351    4.4255    3.1617 H         1 <0>         0.4493
     26 C22         6.8880   -3.7394    1.8056 C.ar      1 <0>        -0.0339
     27 C23         7.6257   -3.6183    0.6281 C.ar      1 <0>        -0.0695
     28 C24         8.8597   -4.2247    0.5241 C.ar      1 <0>        -0.1416
     29 C25         9.3682   -4.9551    1.5897 C.ar      1 <0>         0.1126
     30 C26         8.6366   -5.0777    2.7633 C.ar      1 <0>        -0.1987
     31 C27         7.4041   -4.4695    2.8761 C.ar      1 <0>        -0.0524
     32 O2         10.5845   -5.5518    1.4836 O.3       1 <0>        -0.3283
     33 C28        11.0472   -6.2877    2.6178 C.3       1 <0>         0.0254
     34 C29        12.4234   -6.8827    2.3129 C.3       1 <0>        -0.0008
     35 N3         13.3898   -5.7972    2.0994 N.4       1 <0>        -0.3838
     36 C30        14.6690   -6.3633    1.6550 C.3       1 <0>        -0.0071
     37 C31        15.6544   -5.2321    1.3534 C.3       1 <0>        -0.1466
     38 C32        15.8746   -4.4026    2.6217 C.3       1 <0>        -0.1388
     39 C33        14.5239   -3.8787    3.1181 C.3       1 <0>        -0.1453
     40 C34        13.5804   -5.0600    3.3543 C.3       1 <0>        -0.0132
     41 H2         -1.1064    1.8651    0.9084 H         1 <0>         0.1226
     42 H3          0.9998    3.1259    0.7146 H         1 <0>         0.1223
     43 H4          3.1425    1.9248    0.5438 H         1 <0>         0.1206
     44 H5          1.0723   -1.7981    0.7535 H         1 <0>         0.1221
     45 H6         -1.0706   -0.5970    0.9228 H         1 <0>         0.1237
     46 H7          3.3907   -1.7043    0.0397 H         1 <0>         0.0821
     47 H8          4.2547   -0.1506   -0.0483 H         1 <0>         0.0825
     48 H9          3.5585   -1.8920    3.8085 H         1 <0>         0.0763
     49 H10         2.1826   -1.3300    2.8234 H         1 <0>         0.0909
     50 H11         2.3849   -3.8178    2.8087 H         1 <0>         0.1005
     51 H12         2.5905   -3.1206    1.1874 H         1 <0>         0.1034
     52 H13         8.1885   -1.6950    0.9627 H         1 <0>         0.1342
     53 H14         9.6942    0.1793    1.1419 H         1 <0>         0.1308
     54 H15         3.9495    1.1720    2.1832 H         1 <0>         0.1005
     55 H16         4.3079    0.2807    3.6945 H         1 <0>         0.0981
     56 H17         5.7794    3.3034    3.4186 H         1 <0>         0.1943
     57 H18         7.2306   -3.0506   -0.2014 H         1 <0>         0.1370
     58 H19         9.4313   -4.1316   -0.3876 H         1 <0>         0.1350
     59 H20         9.0350   -5.6466    3.5904 H         1 <0>         0.1272
     60 H21         6.8375   -4.5616    3.7910 H         1 <0>         0.1278
     61 H22        11.1216   -5.6217    3.4774 H         1 <0>         0.0858
     62 H23        10.3452   -7.0913    2.8406 H         1 <0>         0.1094
     63 H24        12.7474   -7.4978    3.1524 H         1 <0>         0.1483
     64 H25        12.3627   -7.4970    1.4145 H         1 <0>         0.1425
     65 H26        15.0766   -6.9998    2.4405 H         1 <0>         0.1288
     66 H27        14.5102   -6.9560    0.7542 H         1 <0>         0.1310
     67 H28        16.6042   -5.6546    1.0254 H         1 <0>         0.1127
     68 H29        15.2480   -4.5951    0.5679 H         1 <0>         0.0881
     69 H30        16.3286   -5.0269    3.3913 H         1 <0>         0.0817
     70 H31        16.5317   -3.5621    2.3981 H         1 <0>         0.0944
     71 H32        14.6656   -3.3338    4.0514 H         1 <0>         0.1118
     72 H33        14.0940   -3.2136    2.3692 H         1 <0>         0.0883
     73 H34        12.6179   -4.6906    3.7080 H         1 <0>         0.1277
     74 H35        14.0112   -5.7243    4.1035 H         1 <0>         0.1298
     75 H36        13.0382   -5.1695    1.3920 H         1 <0>         0.4296
@<TRIPOS>BOND
     1    1    6 ar
     2    1    2 ar
     3    1   41 1
     4    2    3 ar
     5    2   42 1
     6    3    4 ar
     7    3   43 1
     8    4    5 ar
     9    4    7 1
    10    5    6 ar
    11    5   44 1
    12    6   45 1
    13    7    8 1
    14    7   46 1
    15    7   47 1
    16    8   14 1
    17    8   21 1
    18    8    9 1
    19    9   10 1
    20    9   48 1
    21    9   49 1
    22   10   11 1
    23   10   50 1
    24   10   51 1
    25   11   12 2
    26   11   13 1
    27   13   14 2
    28   13   26 1
    29   14   15 1
    30   15   20 ar
    31   15   16 ar
    32   16   17 ar
    33   16   52 1
    34   17   18 ar
    35   17   53 1
    36   18   19 ar
    37   18   24 2
    38   19   20 ar
    39   19   22 2
    40   20   21 1
    41   21   54 1
    42   21   55 1
    43   22   56 1
    44   22   23 1
    45   23   25 1
    46   23   24 1
    47   26   31 ar
    48   26   27 ar
    49   27   28 ar
    50   27   57 1
    51   28   29 ar
    52   28   58 1
    53   29   30 ar
    54   29   32 1
    55   30   31 ar
    56   30   59 1
    57   31   60 1
    58   32   33 1
    59   33   34 1
    60   33   61 1
    61   33   62 1
    62   34   35 1
    63   34   63 1
    64   34   64 1
    65   35   40 1
    66   35   36 1
    67   35   75 1
    68   36   37 1
    69   36   65 1
    70   36   66 1
    71   37   38 1
    72   37   67 1
    73   37   68 1
    74   38   39 1
    75   38   69 1
    76   38   70 1
    77   39   40 1
    78   39   71 1
    79   39   72 1
    80   40   73 1
    81   40   74 1
@<TRIPOS>MOLECULE
CHEMBL212992
   46    49     0     0     0
SMALL
USER_CHARGES

@<TRIPOS>ATOM
      1 C1          0.0584    1.5233    0.1027 C.3       1 <0>        -0.1536
      2 C2          0.0781   -0.0066    0.0910 C.3       1 <0>        -0.1263
      3 C3          0.7500   -0.4982   -1.1927 C.3       1 <0>        -0.1189
      4 C4          0.7697   -2.0280   -1.2044 C.3       1 <0>        -0.0656
      5 H1         -0.2445   -2.4049   -1.0726 H         1 <0>         0.0769
      6 C5          1.6542   -2.5350   -0.0623 C.3       1 <0>        -0.1261
      7 C6          3.0920   -2.0574   -0.2771 C.3       1 <0>        -0.1077
      8 C7          3.6124   -2.5984   -1.6134 C.3       1 <0>        -0.1331
      9 H2          4.6491   -2.2917   -1.7523 H         1 <0>         0.1017
     10 C8          2.7493   -2.0215   -2.7459 C.3       1 <0>        -0.0998
     11 C9          1.3236   -2.5178   -2.5362 C.3       1 <0>        -0.0337
     12 C10         0.3898   -2.1390   -3.6904 C.3       1 <0>        -0.0796
     13 C11        -0.4764   -3.3563   -3.8798 C.ar      1 <0>        -0.0525
     14 C12        -1.6799   -3.4797   -4.5382 C.ar      1 <0>        -0.1351
     15 C13        -2.2565   -4.7516   -4.5819 C.ar      1 <0>         0.1277
     16 C14        -1.6467   -5.8488   -3.9899 C.ar      1 <0>        -0.1575
     17 C15        -0.4457   -5.7394   -3.3161 C.ar      1 <0>        -0.0608
     18 C16         0.1404   -4.4620   -3.2535 C.ar      1 <0>        -0.0964
     19 C17         1.3477   -4.0371   -2.5669 C.2       1 <0>         0.0143
     20 C18         2.3784   -4.7712   -2.0852 C.2       1 <0>        -0.1906
     21 C19         3.5287   -4.1018   -1.6016 C.2       1 <0>         0.4006
     22 O1          4.4643   -4.7458   -1.1710 O.2       1 <0>        -0.4593
     23 C20         2.3050   -6.2763   -2.0647 C.3       1 <0>        -0.1098
     24 O2         -3.4431   -4.9183   -5.2189 O.3       1 <0>        -0.4994
     25 H3          1.0803    1.9001    0.0602 H         1 <0>         0.0537
     26 H4         -0.4988    1.8861   -0.7610 H         1 <0>         0.0532
     27 H5         -0.4203    1.8735    1.0172 H         1 <0>         0.0536
     28 H6          0.6353   -0.3694    0.9547 H         1 <0>         0.0646
     29 H7         -0.9438   -0.3834    0.1335 H         1 <0>         0.0606
     30 H8          0.1928   -0.1354   -2.0564 H         1 <0>         0.0666
     31 H9          1.7719   -0.1213   -1.2351 H         1 <0>         0.0713
     32 H10         1.2807   -2.1476    0.8856 H         1 <0>         0.0752
     33 H11         1.6326   -3.6246   -0.0427 H         1 <0>         0.0642
     34 H12         3.1149   -0.9678   -0.2921 H         1 <0>         0.0812
     35 H13         3.7218   -2.4237    0.5336 H         1 <0>         0.0703
     36 H14         2.7710   -0.9323   -2.7093 H         1 <0>         0.0863
     37 H15         3.1237   -2.3676   -3.7092 H         1 <0>         0.0735
     38 H16        -0.2189   -1.2758   -3.4210 H         1 <0>         0.0934
     39 H17         0.9638   -1.9349   -4.5942 H         1 <0>         0.0939
     40 H18        -2.1579   -2.6290   -5.0010 H         1 <0>         0.1402
     41 H19        -2.1245   -6.8149   -4.0576 H         1 <0>         0.1313
     42 H20         0.0228   -6.5973   -2.8569 H         1 <0>         0.1406
     43 H21         2.1243   -6.6450   -3.0743 H         1 <0>         0.0696
     44 H22         3.2465   -6.6809   -1.6932 H         1 <0>         0.0765
     45 H23         1.4912   -6.5915   -1.4116 H         1 <0>         0.0699
     46 H24        -3.3586   -5.1350   -6.1575 H         1 <0>         0.3947
@<TRIPOS>BOND
     1    1    2 1
     2    1   25 1
     3    1   26 1
     4    1   27 1
     5    2    3 1
     6    2   28 1
     7    2   29 1
     8    3    4 1
     9    3   30 1
    10    3   31 1
    11    4    5 1
    12    4   11 1
    13    4    6 1
    14    6    7 1
    15    6   32 1
    16    6   33 1
    17    7    8 1
    18    7   34 1
    19    7   35 1
    20    8    9 1
    21    8   21 1
    22    8   10 1
    23   10   11 1
    24   10   36 1
    25   10   37 1
    26   11   19 1
    27   11   12 1
    28   12   13 1
    29   12   38 1
    30   12   39 1
    31   13   18 ar
    32   13   14 ar
    33   14   15 ar
    34   14   40 1
    35   15   16 ar
    36   15   24 1
    37   16   17 ar
    38   16   41 1
    39   17   18 ar
    40   17   42 1
    41   18   19 1
    42   19   20 2
    43   20   21 1
    44   20   23 1
    45   21   22 2
    46   23   43 1
    47   23   44 1
    48   23   45 1
    49   24   46 1
@<TRIPOS>MOLECULE
CHEMBL282292
   62    65     0     0     0
SMALL
USER_CHARGES

@<TRIPOS>ATOM
      1 C1          0.0292   -0.4204    0.8359 C.3       1 <0>        -0.1541
      2 C2         -0.6751    0.0064   -0.4535 C.3       1 <0>        -0.0769
      3 C3          0.1688   -0.4136   -1.6586 C.3       1 <0>        -0.1829
      4 C4         -2.0469   -0.6664   -0.5321 C.3       1 <0>        -0.1562
      5 H1         -2.6174   -0.4526    0.3718 H         1 <0>         0.1160
      6 C5         -2.8092   -0.1576   -1.7643 C.3       1 <0>         0.1478
      7 H2         -3.7894   -0.6325   -1.8074 H         1 <0>         0.0905
      8 O1         -2.0712   -0.4804   -2.9428 O.3       1 <0>        -0.2992
      9 C6         -1.6801   -1.7618   -3.1340 C.ar      1 <0>         0.2003
     10 C7         -1.3924   -2.2155   -4.4112 C.ar      1 <0>        -0.1920
     11 C8         -0.9861   -3.5277   -4.6038 C.ar      1 <0>         0.1821
     12 C9         -0.8633   -4.3972   -3.5227 C.ar      1 <0>        -0.1845
     13 C10        -1.1446   -3.9665   -2.2575 C.ar      1 <0>        -0.0108
     14 C11        -1.5587   -2.6477   -2.0489 C.ar      1 <0>        -0.2553
     15 C12        -1.8785   -2.1666   -0.6944 C.2       1 <0>         0.4087
     16 O2         -2.0015   -2.9276    0.2427 O.2       1 <0>        -0.4329
     17 O3         -0.7063   -3.9682   -5.8562 O.3       1 <0>        -0.4929
     18 C13        -2.9782    1.3369   -1.6694 C.ar      1 <0>        -0.1043
     19 C14        -1.9958    2.1752   -2.1633 C.ar      1 <0>        -0.0493
     20 C15        -2.1482    3.5455   -2.0771 C.ar      1 <0>        -0.1418
     21 C16        -3.2882    4.0803   -1.4949 C.ar      1 <0>         0.1216
     22 C17        -4.2727    3.2370   -1.0006 C.ar      1 <0>        -0.2005
     23 C18        -4.1179    1.8674   -1.0939 C.ar      1 <0>        -0.0611
     24 O4         -3.4402    5.4280   -1.4086 O.3       1 <0>        -0.3274
     25 C19        -4.6392    5.9078   -0.7969 C.3       1 <0>         0.0249
     26 C20        -4.6315    7.4378   -0.7904 C.3       1 <0>        -0.0009
     27 N1         -4.6310    7.9334   -2.1733 N.4       1 <0>        -0.3841
     28 C21        -4.4775    9.3931   -2.1683 C.3       1 <0>        -0.0070
     29 C22        -4.3950    9.9061   -3.6076 C.3       1 <0>        -0.1467
     30 C23        -5.6787    9.5287   -4.3525 C.3       1 <0>        -0.1391
     31 C24        -5.8675    8.0104   -4.2874 C.3       1 <0>        -0.1453
     32 C25        -5.8954    7.5677   -2.8229 C.3       1 <0>        -0.0131
     33 H3          1.0370   -0.0054    0.8540 H         1 <0>         0.0638
     34 H4         -0.5310   -0.0518    1.6952 H         1 <0>         0.0586
     35 H5          0.0836   -1.5083    0.8772 H         1 <0>         0.0574
     36 H6         -0.8007    1.0892   -0.4576 H         1 <0>         0.0867
     37 H7          0.1729   -1.5007   -1.7381 H         1 <0>         0.0654
     38 H8         -0.2553    0.0155   -2.5664 H         1 <0>         0.0801
     39 H9          1.1900   -0.0549   -1.5299 H         1 <0>         0.0596
     40 H10        -1.4846   -1.5484   -5.2556 H         1 <0>         0.1457
     41 H11        -0.5440   -5.4160   -3.6855 H         1 <0>         0.1414
     42 H12        -1.0482   -4.6429   -1.4210 H         1 <0>         0.1428
     43 H13         0.2172   -3.8500   -6.1175 H         1 <0>         0.4028
     44 H14        -1.1085    1.7584   -2.6164 H         1 <0>         0.1447
     45 H15        -1.3802    4.1999   -2.4623 H         1 <0>         0.1366
     46 H16        -5.1610    3.6509   -0.5469 H         1 <0>         0.1316
     47 H17        -4.8860    1.2105   -0.7132 H         1 <0>         0.1347
     48 H18        -5.5020    5.5512   -1.3596 H         1 <0>         0.0872
     49 H19        -4.6965    5.5404    0.2277 H         1 <0>         0.1101
     50 H20        -5.5189    7.8034   -0.2737 H         1 <0>         0.1492
     51 H21        -3.7389    7.7944   -0.2763 H         1 <0>         0.1427
     52 H22        -5.3344    9.8464   -1.6700 H         1 <0>         0.1291
     53 H23        -3.5651    9.6602   -1.6350 H         1 <0>         0.1311
     54 H24        -4.2828   10.9903   -3.6017 H         1 <0>         0.1131
     55 H25        -3.5381    9.4535   -4.1067 H         1 <0>         0.0881
     56 H26        -6.5303   10.0223   -3.8843 H         1 <0>         0.0821
     57 H27        -5.6014    9.8421   -5.3936 H         1 <0>         0.0948
     58 H28        -6.8078    7.7396   -4.7675 H         1 <0>         0.1123
     59 H29        -5.0412    7.5185   -4.8006 H         1 <0>         0.0880
     60 H30        -6.0299    6.4872   -2.7729 H         1 <0>         0.1273
     61 H31        -6.7221    8.0599   -2.3107 H         1 <0>         0.1302
     62 H32        -3.8623    7.5181   -2.6780 H         1 <0>         0.4295
@<TRIPOS>BOND
     1    1    2 1
     2    1   33 1
     3    1   34 1
     4    1   35 1
     5    2    3 1
     6    2    4 1
     7    2   36 1
     8    3   37 1
     9    3   38 1
    10    3   39 1
    11    4    5 1
    12    4   15 1
    13    4    6 1
    14    6    7 1
    15    6    8 1
    16    6   18 1
    17    8    9 1
    18    9   14 ar
    19    9   10 ar
    20   10   11 ar
    21   10   40 1
    22   11   12 ar
    23   11   17 1
    24   12   13 ar
    25   12   41 1
    26   13   14 ar
    27   13   42 1
    28   14   15 1
    29   15   16 2
    30   17   43 1
    31   18   23 ar
    32   18   19 ar
    33   19   20 ar
    34   19   44 1
    35   20   21 ar
    36   20   45 1
    37   21   22 ar
    38   21   24 1
    39   22   23 ar
    40   22   46 1
    41   23   47 1
    42   24   25 1
    43   25   26 1
    44   25   48 1
    45   25   49 1
    46   26   27 1
    47   26   50 1
    48   26   51 1
    49   27   32 1
    50   27   28 1
    51   27   62 1
    52   28   29 1
    53   28   52 1
    54   28   53 1
    55   29   30 1
    56   29   54 1
    57   29   55 1
    58   30   31 1
    59   30   56 1
    60   30   57 1
    61   31   32 1
    62   31   58 1
    63   31   59 1
    64   32   60 1
    65   32   61 1
@<TRIPOS>MOLECULE
CHEMBL46740
   70    74     0     0     0
SMALL
USER_CHARGES

@<TRIPOS>ATOM
      1 C1          0.1983    1.8394    0.1429 C.3       1 <0>        -0.0833
      2 C2          0.1339    0.3340    0.1656 C.2       1 <0>        -0.1419
      3 C3          0.0503   -0.5507   -0.9954 C.ar      1 <0>        -0.0878
      4 C4          0.0055   -0.3324   -2.3758 C.ar      1 <0>        -0.0927
      5 C5         -0.0745   -1.4101   -3.2344 C.ar      1 <0>         0.0783
      6 C6         -0.1103   -2.7080   -2.7305 C.ar      1 <0>        -0.1157
      7 C7         -0.0667   -2.9353   -1.3728 C.ar      1 <0>        -0.1165
      8 C8          0.0139   -1.8637   -0.4900 C.ar      1 <0>         0.1035
      9 N1          0.0717   -1.7775    0.8861 N.pl3     1 <0>        -0.4723
     10 C9          0.1483   -0.4580    1.2667 C.2       1 <0>         0.1157
     11 C10         0.2309    0.0235    2.6623 C.ar      1 <0>        -0.0361
     12 C11        -0.6007   -0.5228    3.6413 C.ar      1 <0>        -0.0977
     13 C12        -0.5207   -0.0712    4.9413 C.ar      1 <0>        -0.1404
     14 C13         0.3855    0.9258    5.2774 C.ar      1 <0>         0.1145
     15 C14         1.2141    1.4721    4.3062 C.ar      1 <0>        -0.1416
     16 C15         1.1445    1.0215    3.0053 C.ar      1 <0>        -0.0782
     17 O1          0.4613    1.3682    6.5598 O.3       1 <0>        -0.4956
     18 C16         0.0588   -2.9197    1.8033 C.3       1 <0>         0.1425
     19 C17         1.4728   -3.3718    2.0626 C.ar      1 <0>        -0.1304
     20 C18         2.0541   -4.3232    1.2448 C.ar      1 <0>        -0.0557
     21 C19         3.3500   -4.7396    1.4806 C.ar      1 <0>        -0.1407
     22 C20         4.0684   -4.2020    2.5388 C.ar      1 <0>         0.1223
     23 C21         3.4830   -3.2472    3.3575 C.ar      1 <0>        -0.2022
     24 C22         2.1886   -2.8304    3.1143 C.ar      1 <0>        -0.0534
     25 O2          5.3432   -4.6103    2.7731 O.3       1 <0>        -0.3277
     26 C23         6.0224   -4.0138    3.8799 C.3       1 <0>         0.0240
     27 C24         7.4342   -4.5942    3.9848 C.3       1 <0>        -0.0077
     28 N2          8.1981   -4.2447    2.7797 N.4       1 <0>        -0.3670
     29 C25         9.4603   -5.0095    2.7810 C.3       1 <0>        -0.0035
     30 C26         9.9368   -5.1393    1.3560 C.3       1 <0>        -0.1501
     31 C27        10.9684   -4.0508    1.0054 C.3       1 <0>        -0.1310
     32 C28        10.5786   -2.6811    1.5972 C.3       1 <0>        -0.1388
     33 C29         9.1035   -2.3990    1.4690 C.3       1 <0>        -0.1341
     34 C30         8.3886   -2.8620    2.7557 C.3       1 <0>        -0.0397
     35 O3         -0.1188   -1.2038   -4.5778 O.3       1 <0>        -0.4958
     36 H1          1.2395    2.1578    0.0920 H         1 <0>         0.0648
     37 H2         -0.3390    2.2130   -0.7288 H         1 <0>         0.0681
     38 H3         -0.2591    2.2364    1.0492 H         1 <0>         0.0666
     39 H4          0.0329    0.6735   -2.7679 H         1 <0>         0.1302
     40 H5         -0.1733   -3.5443   -3.4109 H         1 <0>         0.1330
     41 H6         -0.0955   -3.9461   -0.9935 H         1 <0>         0.1214
     42 H7         -1.3060   -1.2980    3.3806 H         1 <0>         0.1288
     43 H8         -1.1640   -0.4932    5.6993 H         1 <0>         0.1347
     44 H9          1.9174    2.2476    4.5715 H         1 <0>         0.1344
     45 H10         1.7929    1.4432    2.2515 H         1 <0>         0.1327
     46 H11         1.0936    0.8823    7.1068 H         1 <0>         0.3923
     47 H12        -0.4068   -2.6252    2.7439 H         1 <0>         0.1036
     48 H13        -0.5081   -3.7372    1.3577 H         1 <0>         0.1001
     49 H14         1.4944   -4.7414    0.4212 H         1 <0>         0.1351
     50 H15         3.8034   -5.4832    0.8421 H         1 <0>         0.1355
     51 H16         4.0402   -2.8272    4.1819 H         1 <0>         0.1284
     52 H17         1.7339   -2.0839    3.7488 H         1 <0>         0.1294
     53 H18         6.0829   -2.9358    3.7309 H         1 <0>         0.0872
     54 H19         5.4742   -4.2235    4.7984 H         1 <0>         0.1103
     55 H20         7.9320   -4.1823    4.8627 H         1 <0>         0.1506
     56 H21         7.3753   -5.6788    4.0758 H         1 <0>         0.1447
     57 H22        10.2089   -4.4820    3.3721 H         1 <0>         0.1340
     58 H23         9.2893   -5.9999    3.2029 H         1 <0>         0.1350
     59 H24        10.3934   -6.1198    1.2208 H         1 <0>         0.1092
     60 H25         9.0824   -5.0498    0.6850 H         1 <0>         0.0821
     61 H26        11.9417   -4.3438    1.3992 H         1 <0>         0.0808
     62 H27        11.0373   -3.9626   -0.0788 H         1 <0>         0.0819
     63 H28        10.8514   -2.6619    2.6523 H         1 <0>         0.0693
     64 H29        11.1338   -1.9008    1.0766 H         1 <0>         0.0870
     65 H30         8.9476   -1.3292    1.3301 H         1 <0>         0.1090
     66 H31         8.7015   -2.9415    0.6133 H         1 <0>         0.0874
     67 H32         7.4183   -2.3694    2.8189 H         1 <0>         0.1271
     68 H33         8.9884   -2.5719    3.6184 H         1 <0>         0.1289
     69 H34         0.7502   -1.1817   -5.0013 H         1 <0>         0.3873
     70 H35         7.6609   -4.5114    1.9682 H         1 <0>         0.4259
@<TRIPOS>BOND
     1    1    2 1
     2    1   36 1
     3    1   37 1
     4    1   38 1
     5    2   10 2
     6    2    3 1
     7    3    8 ar
     8    3    4 ar
     9    4    5 ar
    10    4   39 1
    11    5    6 ar
    12    5   35 1
    13    6    7 ar
    14    6   40 1
    15    7    8 ar
    16    7   41 1
    17    8    9 1
    18    9   10 1
    19    9   18 1
    20   10   11 1
    21   11   16 ar
    22   11   12 ar
    23   12   13 ar
    24   12   42 1
    25   13   14 ar
    26   13   43 1
    27   14   15 ar
    28   14   17 1
    29   15   16 ar
    30   15   44 1
    31   16   45 1
    32   17   46 1
    33   18   19 1
    34   18   47 1
    35   18   48 1
    36   19   24 ar
    37   19   20 ar
    38   20   21 ar
    39   20   49 1
    40   21   22 ar
    41   21   50 1
    42   22   23 ar
    43   22   25 1
    44   23   24 ar
    45   23   51 1
    46   24   52 1
    47   25   26 1
    48   26   27 1
    49   26   53 1
    50   26   54 1
    51   27   28 1
    52   27   55 1
    53   27   56 1
    54   28   34 1
    55   28   29 1
    56   28   70 1
    57   29   30 1
    58   29   57 1
    59   29   58 1
    60   30   31 1
    61   30   59 1
    62   30   60 1
    63   31   32 1
    64   31   61 1
    65   31   62 1
    66   32   33 1
    67   32   63 1
    68   32   64 1
    69   33   34 1
    70   33   65 1
    71   33   66 1
    72   34   67 1
    73   34   68 1
    74   35   69 1
@<TRIPOS>MOLECULE
CHEMBL418327
   61    65     0     0     0
SMALL
USER_CHARGES

@<TRIPOS>ATOM
      1 C1         -2.1286   -3.5783   -2.5392 C.ar      1 <0>        -0.0845
      2 C2         -1.7991   -4.4613   -3.5449 C.ar      1 <0>        -0.1416
      3 C3         -0.5463   -4.4019   -4.1412 C.ar      1 <0>         0.1155
      4 C4          0.3801   -3.4536   -3.7278 C.ar      1 <0>        -0.1435
      5 C5          0.0600   -2.5667   -2.7225 C.ar      1 <0>        -0.0735
      6 C6         -1.1996   -2.6223   -2.1197 C.ar      1 <0>        -0.0318
      7 C7         -1.5476   -1.6745   -1.0439 C.2       1 <0>        -0.1762
      8 C8         -0.7561   -1.5599    0.0413 C.2       1 <0>         0.1416
      9 O1         -0.9789   -0.7153    1.0590 O.3       1 <0>        -0.2464
     10 C9         -2.1854   -0.2095    1.3974 C.ar      1 <0>         0.1106
     11 C10        -2.3852    0.2279    2.7011 C.ar      1 <0>        -0.1013
     12 C11        -3.6025    0.7594    3.0831 C.ar      1 <0>        -0.1066
     13 C12        -4.6386    0.8619    2.1678 C.ar      1 <0>         0.1086
     14 C13        -4.4501    0.4249    0.8642 C.ar      1 <0>        -0.0868
     15 C14        -3.2310   -0.1111    0.4833 C.ar      1 <0>        -0.1569
     16 S1         -2.9984   -0.6787   -1.1728 S.3       1 <0>         0.0397
     17 O2         -5.8342    1.3879    2.5458 O.3       1 <0>        -0.4905
     18 C15         0.4367   -2.4218    0.1141 C.ar      1 <0>        -0.0659
     19 C16         1.6883   -1.8653    0.3960 C.ar      1 <0>        -0.0447
     20 C17         2.8007   -2.6760    0.4634 C.ar      1 <0>        -0.1426
     21 C18         2.6804   -4.0433    0.2520 C.ar      1 <0>         0.1299
     22 C19         1.4397   -4.6010   -0.0282 C.ar      1 <0>        -0.2000
     23 C20         0.3202   -3.8000   -0.0927 C.ar      1 <0>        -0.0366
     24 O3          3.7806   -4.8384    0.3192 O.3       1 <0>        -0.3260
     25 C21         3.5862   -6.2357    0.0916 C.3       1 <0>         0.0241
     26 C22         4.9274   -6.9628    0.2075 C.3       1 <0>        -0.0008
     27 N1          5.4360   -6.8364    1.5799 N.4       1 <0>        -0.3842
     28 C23         6.7946   -7.3876    1.6493 C.3       1 <0>        -0.0070
     29 C24         7.3598   -7.1853    3.0569 C.3       1 <0>        -0.1466
     30 C25         6.4633   -7.9041    4.0692 C.3       1 <0>        -0.1390
     31 C26         5.0329   -7.3736    3.9364 C.3       1 <0>        -0.1454
     32 C27         4.5539   -7.5689    2.4963 C.3       1 <0>        -0.0134
     33 O4         -0.2258   -5.2749   -5.1322 O.3       1 <0>        -0.5014
     34 H1         -3.1047   -3.6224   -2.0791 H         1 <0>         0.1336
     35 H2         -2.5163   -5.2007   -3.8695 H         1 <0>         0.1348
     36 H3          1.3532   -3.4112   -4.1944 H         1 <0>         0.1309
     37 H4          0.7812   -1.8298   -2.4014 H         1 <0>         0.1273
     38 H5         -1.5837    0.1516    3.4210 H         1 <0>         0.1451
     39 H6         -3.7473    1.0958    4.0991 H         1 <0>         0.1475
     40 H7         -5.2539    0.5025    0.1469 H         1 <0>         0.1451
     41 H8         -5.8980    2.3454    2.4262 H         1 <0>         0.3977
     42 H9          1.7831   -0.8021    0.5601 H         1 <0>         0.1427
     43 H10         3.7679   -2.2472    0.6807 H         1 <0>         0.1391
     44 H11         1.3515   -5.6649   -0.1921 H         1 <0>         0.1325
     45 H12        -0.6448   -4.2352   -0.3066 H         1 <0>         0.1336
     46 H13         2.8930   -6.6317    0.8337 H         1 <0>         0.0872
     47 H14         3.1757   -6.3876   -0.9066 H         1 <0>         0.1114
     48 H15         4.7913   -8.0170   -0.0339 H         1 <0>         0.1495
     49 H16         5.6417   -6.5204   -0.4868 H         1 <0>         0.1432
     50 H17         6.7664   -8.4526    1.4192 H         1 <0>         0.1292
     51 H18         7.4306   -6.8773    0.9261 H         1 <0>         0.1312
     52 H19         8.3679   -7.5968    3.1069 H         1 <0>         0.1131
     53 H20         7.3887   -6.1205    3.2879 H         1 <0>         0.0880
     54 H21         6.4746   -8.9756    3.8698 H         1 <0>         0.0821
     55 H22         6.8296   -7.7161    5.0785 H         1 <0>         0.0947
     56 H23         4.3777   -7.9197    4.6152 H         1 <0>         0.1122
     57 H24         5.0135   -6.3127    4.1858 H         1 <0>         0.0879
     58 H25         3.5356   -7.1925    2.3984 H         1 <0>         0.1272
     59 H26         4.5734   -8.6301    2.2482 H         1 <0>         0.1305
     60 H27        -0.4459   -4.9605   -6.0198 H         1 <0>         0.3968
     61 H28         5.4566   -5.8621    1.8414 H         1 <0>         0.4293
@<TRIPOS>BOND
     1    1    6 ar
     2    1    2 ar
     3    1   34 1
     4    2    3 ar
     5    2   35 1
     6    3    4 ar
     7    3   33 1
     8    4    5 ar
     9    4   36 1
    10    5    6 ar
    11    5   37 1
    12    6    7 1
    13    7   16 1
    14    7    8 2
    15    8    9 1
    16    8   18 1
    17    9   10 1
    18   10   15 ar
    19   10   11 ar
    20   11   12 ar
    21   11   38 1
    22   12   13 ar
    23   12   39 1
    24   13   14 ar
    25   13   17 1
    26   14   15 ar
    27   14   40 1
    28   15   16 1
    29   17   41 1
    30   18   23 ar
    31   18   19 ar
    32   19   20 ar
    33   19   42 1
    34   20   21 ar
    35   20   43 1
    36   21   22 ar
    37   21   24 1
    38   22   23 ar
    39   22   44 1
    40   23   45 1
    41   24   25 1
    42   25   26 1
    43   25   46 1
    44   25   47 1
    45   26   27 1
    46   26   48 1
    47   26   49 1
    48   27   32 1
    49   27   28 1
    50   27   61 1
    51   28   29 1
    52   28   50 1
    53   28   51 1
    54   29   30 1
    55   29   52 1
    56   29   53 1
    57   30   31 1
    58   30   54 1
    59   30   55 1
    60   31   32 1
    61   31   56 1
    62   31   57 1
    63   32   58 1
    64   32   59 1
    65   33   60 1
@<TRIPOS>MOLECULE
CHEMBL211800
   42    46     0     0     0
SMALL
USER_CHARGES

@<TRIPOS>ATOM
      1 C1          0.2009    1.5287    0.4063 C.ar      1 <0>        -0.0206
      2 C2          1.3333    2.2500    0.6229 C.ar      1 <0>        -0.1497
      3 C3          2.5615    1.6040    0.7692 C.ar      1 <0>         0.1584
      4 C4          2.6197    0.1959    0.7240 C.ar      1 <0>        -0.1788
      5 C5          4.0212   -0.1624    0.9295 C.2       1 <0>         0.0874
      6 N1          4.6960    0.9422    1.0698 N.2       1 <0>        -0.2468
      7 N2          3.8407    2.0443    0.9742 N.pl3     1 <0>        -0.5042
      8 H1          4.1112    2.9733    1.0423 H         1 <0>         0.4439
      9 C6          1.4565   -0.5432    0.5076 C.ar      1 <0>         0.0299
     10 C7          0.2456    0.1238    0.3118 C.ar      1 <0>        -0.1460
     11 C8         -0.7945   -0.8534   -0.0229 C.2       1 <0>         0.0739
     12 C9         -1.9565   -0.6832   -0.6879 C.2       1 <0>        -0.2129
     13 C10        -2.7504   -1.8164   -0.9719 C.2       1 <0>         0.3962
     14 O1         -3.8009   -1.6761   -1.5652 O.2       1 <0>        -0.4450
     15 C11        -2.3163   -3.1946   -0.5522 C.3       1 <0>        -0.1598
     16 C12        -0.7887   -3.2732   -0.4557 C.3       1 <0>        -0.1105
     17 C13        -0.3116   -2.1915    0.5167 C.3       1 <0>        -0.0357
     18 C14         1.2181   -2.0389    0.4621 C.3       1 <0>        -0.0807
     19 C15        -0.8227   -2.4476    1.9359 C.3       1 <0>        -0.0963
     20 C16        -0.3604   -3.8292    2.4029 C.3       1 <0>        -0.0892
     21 C17        -0.7605   -4.0335    3.8655 C.3       1 <0>        -0.1552
     22 C18         0.3645   -4.2015    4.8888 C.3       1 <0>        -0.1806
     23 C19        -0.4901   -5.4052    4.4869 C.3       1 <0>        -0.1806
     24 Br1        -2.5120    1.0415   -1.2292 Br        1 <0>        -0.0266
     25 H2         -0.7458    2.0393    0.3098 H         1 <0>         0.1394
     26 H3          1.2818    3.3271    0.6816 H         1 <0>         0.1351
     27 H4          4.4248   -1.1637    0.9600 H         1 <0>         0.2007
     28 H5         -2.7502   -3.4274    0.4202 H         1 <0>         0.1075
     29 H6         -2.6679   -3.9208   -1.2851 H         1 <0>         0.1036
     30 H7         -0.4940   -4.2553   -0.0860 H         1 <0>         0.0927
     31 H8         -0.3493   -3.1032   -1.4386 H         1 <0>         0.0786
     32 H9          1.6083   -2.4577   -0.4654 H         1 <0>         0.1012
     33 H10         1.6795   -2.5235    1.3225 H         1 <0>         0.1002
     34 H11        -0.4269   -1.6858    2.6075 H         1 <0>         0.0761
     35 H12        -1.9119   -2.4074    1.9426 H         1 <0>         0.0739
     36 H13        -0.8296   -4.5967    1.7873 H         1 <0>         0.0734
     37 H14         0.7233   -3.9006    2.3093 H         1 <0>         0.0699
     38 H15        -1.6577   -3.5039    4.1858 H         1 <0>         0.1039
     39 H16         1.3896   -4.1664    4.5201 H         1 <0>         0.0940
     40 H17         0.2075   -3.7822    5.8826 H         1 <0>         0.0920
     41 H18        -1.2093   -5.7779    5.2163 H         1 <0>         0.0932
     42 H19        -0.0272   -6.1622    3.8537 H         1 <0>         0.0944
@<TRIPOS>BOND
     1    1   10 ar
     2    1    2 ar
     3    1   25 1
     4    2    3 ar
     5    2   26 1
     6    3    7 1
     7    3    4 ar
     8    4    5 1
     9    4    9 ar
    10    5    6 2
    11    5   27 1
    12    6    7 1
    13    7    8 1
    14    9   18 1
    15    9   10 ar
    16   10   11 1
    17   11   17 1
    18   11   12 2
    19   12   13 1
    20   12   24 1
    21   13   14 2
    22   13   15 1
    23   15   16 1
    24   15   28 1
    25   15   29 1
    26   16   17 1
    27   16   30 1
    28   16   31 1
    29   17   18 1
    30   17   19 1
    31   18   32 1
    32   18   33 1
    33   19   20 1
    34   19   34 1
    35   19   35 1
    36   20   21 1
    37   20   36 1
    38   20   37 1
    39   21   23 1
    40   21   22 1
    41   21   38 1
    42   22   23 1
    43   22   39 1
    44   22   40 1
    45   23   41 1
    46   23   42 1
@<TRIPOS>MOLECULE
CHEMBL211800__1
   42    46     0     0     0
SMALL
USER_CHARGES

@<TRIPOS>ATOM
      1 C1          0.2172    1.5353    0.4077 C.ar      1 <0>        -0.0382
      2 C2          1.3280    2.2697    0.6213 C.ar      1 <0>        -0.1096
      3 C3          2.5821    1.6317    0.7637 C.ar      1 <0>         0.1275
      4 C4          2.6406    0.1621    0.7025 C.ar      1 <0>        -0.2064
      5 C5          3.9728   -0.1824    0.8724 C.2       1 <0>         0.1058
      6 N1          4.6724    0.9489    1.0223 N.pl3     1 <0>        -0.4200
      7 N2          3.8168    2.0539    0.9542 N.2       1 <0>        -0.3024
      8 H1          5.6316    0.9957    1.1585 H         1 <0>         0.4478
      9 C6          1.4531   -0.5624    0.5014 C.ar      1 <0>         0.0347
     10 C7          0.2575    0.1212    0.3134 C.ar      1 <0>        -0.1412
     11 C8         -0.7978   -0.8405   -0.0162 C.2       1 <0>         0.0748
     12 C9         -1.9541   -0.6547   -0.6904 C.2       1 <0>        -0.2177
     13 C10        -2.7670   -1.7744   -0.9656 C.2       1 <0>         0.3961
     14 O1         -3.8112   -1.6209   -1.5673 O.2       1 <0>        -0.4470
     15 C11        -2.3627   -3.1553   -0.5261 C.3       1 <0>        -0.1597
     16 C12        -0.8375   -3.2642   -0.4223 C.3       1 <0>        -0.1102
     17 C13        -0.3412   -2.1811    0.5391 C.3       1 <0>        -0.0356
     18 C14         1.1910   -2.0549    0.4812 C.3       1 <0>        -0.0820
     19 C15        -0.8571   -2.4122    1.9608 C.3       1 <0>        -0.0962
     20 C16        -0.4145   -3.7941    2.4457 C.3       1 <0>        -0.0887
     21 C17        -0.8192   -3.9746    3.9101 C.3       1 <0>        -0.1548
     22 C18         0.3021   -4.1452    4.9371 C.3       1 <0>        -0.1808
     23 C19        -0.5685   -5.3420    4.5490 C.3       1 <0>        -0.1807
     24 Br1        -2.4731    1.0741   -1.2541 Br        1 <0>        -0.0261
     25 H2         -0.7329    2.0395    0.3099 H         1 <0>         0.1356
     26 H3          1.2598    3.3457    0.6832 H         1 <0>         0.1362
     27 H4          4.3744   -1.1849    0.8825 H         1 <0>         0.1931
     28 H5         -2.8050   -3.3664    0.4475 H         1 <0>         0.1069
     29 H6         -2.7263   -3.8838   -1.2508 H         1 <0>         0.1027
     30 H7         -0.5647   -4.2478   -0.0397 H         1 <0>         0.0914
     31 H8         -0.3909   -3.1152   -1.4054 H         1 <0>         0.0780
     32 H9          1.5744   -2.4957   -0.4391 H         1 <0>         0.0993
     33 H10         1.6445   -2.5322    1.3499 H         1 <0>         0.0977
     34 H11        -0.4514   -1.6475    2.6233 H         1 <0>         0.0765
     35 H12        -1.9457   -2.3568    1.9658 H         1 <0>         0.0744
     36 H13        -0.8934   -4.5627    1.8390 H         1 <0>         0.0732
     37 H14         0.6682   -3.8816    2.3546 H         1 <0>         0.0686
     38 H15        -1.7094   -3.4287    4.2225 H         1 <0>         0.1044
     39 H16         1.3280   -4.1289    4.5694 H         1 <0>         0.0930
     40 H17         0.1497   -3.7114    5.9254 H         1 <0>         0.0921
     41 H18        -1.2937   -5.6956    5.2820 H         1 <0>         0.0934
     42 H19        -0.1153   -6.1131    3.9260 H         1 <0>         0.0941
@<TRIPOS>BOND
     1    1   10 ar
     2    1    2 ar
     3    1   25 1
     4    2    3 ar
     5    2   26 1
     6    3    4 ar
     7    3    7 2
     8    4    9 ar
     9    4    5 2
    10    5   27 1
    11    5    6 1
    12    6    8 1
    13    6    7 1
    14    9   18 1
    15    9   10 ar
    16   10   11 1
    17   11   17 1
    18   11   12 2
    19   12   13 1
    20   12   24 1
    21   13   14 2
    22   13   15 1
    23   15   16 1
    24   15   28 1
    25   15   29 1
    26   16   17 1
    27   16   30 1
    28   16   31 1
    29   17   18 1
    30   17   19 1
    31   18   32 1
    32   18   33 1
    33   19   20 1
    34   19   34 1
    35   19   35 1
    36   20   21 1
    37   20   36 1
    38   20   37 1
    39   21   23 1
    40   21   22 1
    41   21   38 1
    42   22   23 1
    43   22   39 1
    44   22   40 1
    45   23   41 1
    46   23   42 1
@<TRIPOS>MOLECULE
CHEMBL209014
   42    46     0     0     0
SMALL
USER_CHARGES

@<TRIPOS>ATOM
      1 C1         -0.0170    1.3774    0.0140 C.ar      1 <0>        -0.1064
      2 C2          0.0382    0.0709   -0.4343 C.ar      1 <0>        -0.1150
      3 C3          1.2447   -0.6036   -0.4512 C.ar      1 <0>        -0.0820
      4 C4          2.3960    0.0285   -0.0201 C.ar      1 <0>        -0.0857
      5 C5          2.3409    1.3353    0.4274 C.ar      1 <0>        -0.1108
      6 C6          1.1342    2.0093    0.4456 C.ar      1 <0>        -0.1183
      7 C7          3.7112   -0.7071   -0.0376 C.3       1 <0>         0.1893
      8 C8          4.0218   -1.1329   -1.4440 C.2       1 <0>        -0.0931
      9 C9          4.7705   -2.2314   -1.6713 C.2       1 <0>        -0.1048
     10 C10         5.1351   -2.6241   -3.0749 C.3       1 <0>         0.1145
     11 O1          4.1195   -2.2194   -3.9924 O.3       1 <0>        -0.3057
     12 C11         3.6207   -0.9623   -3.8760 C.ar      1 <0>         0.1502
     13 C12         3.5332   -0.3720   -2.6038 C.ar      1 <0>        -0.1235
     14 C13         2.9974    0.9059   -2.4621 C.ar      1 <0>        -0.0630
     15 C14         2.5674    1.5939   -3.5784 C.ar      1 <0>        -0.1705
     16 C15         2.6694    1.0169   -4.8380 C.ar      1 <0>         0.1485
     17 C16         3.1948   -0.2600   -4.9864 C.ar      1 <0>        -0.1725
     18 O2          2.2519    1.7061   -5.9318 O.3       1 <0>        -0.4945
     19 C17         5.1938   -3.0388   -0.5169 C.ar      1 <0>        -0.1268
     20 C18         6.1605   -4.0345   -0.6406 C.ar      1 <0>        -0.0566
     21 C19         6.5413   -4.7582    0.4706 C.ar      1 <0>        -0.1685
     22 C20         5.9654   -4.4957    1.7077 C.ar      1 <0>         0.1485
     23 C21         4.9972   -3.5092    1.8378 C.ar      1 <0>        -0.1675
     24 C22         4.6011   -2.7833    0.7310 C.ar      1 <0>         0.1511
     25 O3          3.6269   -1.8425    0.8242 O.3       1 <0>        -0.2971
     26 O4          6.3527   -5.2088    2.7974 O.3       1 <0>        -0.4938
     27 H1         -0.9589    1.9058    0.0230 H         1 <0>         0.1264
     28 H2         -0.8613   -0.4229   -0.7711 H         1 <0>         0.1260
     29 H3          1.2878   -1.6245   -0.8008 H         1 <0>         0.1209
     30 H4          3.2404    1.8290    0.7645 H         1 <0>         0.1284
     31 H5          1.0911    3.0301    0.7956 H         1 <0>         0.1289
     32 H6          4.4989   -0.0433    0.3186 H         1 <0>         0.0907
     33 H7          6.0764   -2.1472   -3.3481 H         1 <0>         0.0788
     34 H8          5.2540   -3.7064   -3.1255 H         1 <0>         0.1206
     35 H9          2.9186    1.3559   -1.4835 H         1 <0>         0.1495
     36 H10         2.1504    2.5845   -3.4725 H         1 <0>         0.1339
     37 H11         3.2710   -0.7028   -5.9685 H         1 <0>         0.1412
     38 H12         2.9395    2.2494   -6.3405 H         1 <0>         0.3957
     39 H13         6.6092   -4.2389   -1.6015 H         1 <0>         0.1361
     40 H14         7.2893   -5.5318    0.3785 H         1 <0>         0.1374
     41 H15         4.5541   -3.3099    2.8024 H         1 <0>         0.1426
     42 H16         7.0947   -4.8187    3.2794 H         1 <0>         0.3968
@<TRIPOS>BOND
     1    1    6 ar
     2    1    2 ar
     3    1   27 1
     4    2    3 ar
     5    2   28 1
     6    3    4 ar
     7    3   29 1
     8    4    5 ar
     9    4    7 1
    10    5    6 ar
    11    5   30 1
    12    6   31 1
    13    7   25 1
    14    7    8 1
    15    7   32 1
    16    8   13 1
    17    8    9 2
    18    9   10 1
    19    9   19 1
    20   10   11 1
    21   10   33 1
    22   10   34 1
    23   11   12 1
    24   12   17 ar
    25   12   13 ar
    26   13   14 ar
    27   14   15 ar
    28   14   35 1
    29   15   16 ar
    30   15   36 1
    31   16   17 ar
    32   16   18 1
    33   17   37 1
    34   18   38 1
    35   19   24 ar
    36   19   20 ar
    37   20   21 ar
    38   20   39 1
    39   21   22 ar
    40   21   40 1
    41   22   23 ar
    42   22   26 1
    43   23   24 ar
    44   23   41 1
    45   24   25 1
    46   26   42 1
@<TRIPOS>MOLECULE
CHEMBL209014__1
   42    46     0     0     0
SMALL
USER_CHARGES

@<TRIPOS>ATOM
      1 C1         -0.0167    1.3781    0.0096 C.ar      1 <0>        -0.1121
      2 C2          1.1709    2.0855    0.0021 C.ar      1 <0>        -0.1159
      3 C3          2.3773    1.4107   -0.0130 C.ar      1 <0>        -0.1042
      4 C4          2.3960    0.0285   -0.0201 C.ar      1 <0>        -0.1155
      5 C5          1.2084   -0.6789   -0.0117 C.ar      1 <0>        -0.1083
      6 C6          0.0021   -0.0041    0.0020 C.ar      1 <0>        -0.1156
      7 C7          3.7112   -0.7071   -0.0376 C.3       1 <0>         0.1881
      8 C8          4.0511   -1.1468    1.3578 C.2       1 <0>        -0.0911
      9 C9          3.6222   -2.3402    1.8171 C.2       1 <0>        -0.0998
     10 C10         3.9073   -2.7554    3.2326 C.3       1 <0>         0.1141
     11 O1          5.1340   -2.1857    3.6886 O.3       1 <0>        -0.3046
     12 C11         5.3576   -0.8708    3.4365 C.ar      1 <0>         0.1512
     13 C12         4.8452   -0.2990    2.2596 C.ar      1 <0>        -0.1223
     14 C13         5.0893    1.0415    1.9706 C.ar      1 <0>        -0.0589
     15 C14         5.8236    1.8077    2.8527 C.ar      1 <0>        -0.1681
     16 C15         6.3160    1.2466    4.0243 C.ar      1 <0>         0.1482
     17 C16         6.0838   -0.0912    4.3155 C.ar      1 <0>        -0.1680
     18 O2          7.0298    2.0118    4.8909 O.3       1 <0>        -0.4937
     19 C17         2.8961   -3.2241    0.8923 C.ar      1 <0>        -0.1279
     20 C18         2.2137   -4.3503    1.3474 C.ar      1 <0>        -0.0563
     21 C19         1.5312   -5.1444    0.4490 C.ar      1 <0>        -0.1694
     22 C20         1.5226   -4.8231   -0.9030 C.ar      1 <0>         0.1498
     23 C21         2.2059   -3.7065   -1.3650 C.ar      1 <0>        -0.1719
     24 C22         2.8994   -2.9075   -0.4764 C.ar      1 <0>         0.1542
     25 O3          3.6088   -1.8338   -0.9087 O.3       1 <0>        -0.2929
     26 O4          0.8411   -5.6073   -1.7786 O.3       1 <0>        -0.4931
     27 H1         -0.9591    1.9053    0.0259 H         1 <0>         0.1252
     28 H2          1.1563    3.1654    0.0076 H         1 <0>         0.1271
     29 H3          3.3051    1.9634   -0.0196 H         1 <0>         0.1245
     30 H4          1.2231   -1.7588   -0.0176 H         1 <0>         0.1248
     31 H5         -0.9258   -0.5567    0.0082 H         1 <0>         0.1241
     32 H6          4.4914   -0.0397   -0.4035 H         1 <0>         0.1333
     33 H7          3.0943   -2.4191    3.8761 H         1 <0>         0.0789
     34 H8          3.9763   -3.8421    3.2810 H         1 <0>         0.1214
     35 H9          4.7061    1.4790    1.0605 H         1 <0>         0.1333
     36 H10         6.0159    2.8472    2.6316 H         1 <0>         0.1371
     37 H11         6.4697   -0.5211    5.2280 H         1 <0>         0.1430
     38 H12         6.4909    2.4542    5.5609 H         1 <0>         0.3966
     39 H13         2.2191   -4.6006    2.3980 H         1 <0>         0.1365
     40 H14         1.0021   -6.0190    0.7976 H         1 <0>         0.1379
     41 H15         2.1952   -3.4626   -2.4170 H         1 <0>         0.1434
     42 H16        -0.0793   -5.3418   -1.9104 H         1 <0>         0.3968
@<TRIPOS>BOND
     1    1    6 ar
     2    1    2 ar
     3    1   27 1
     4    2    3 ar
     5    2   28 1
     6    3    4 ar
     7    3   29 1
     8    4    5 ar
     9    4    7 1
    10    5    6 ar
    11    5   30 1
    12    6   31 1
    13    7   25 1
    14    7    8 1
    15    7   32 1
    16    8   13 1
    17    8    9 2
    18    9   10 1
    19    9   19 1
    20   10   11 1
    21   10   33 1
    22   10   34 1
    23   11   12 1
    24   12   17 ar
    25   12   13 ar
    26   13   14 ar
    27   14   15 ar
    28   14   35 1
    29   15   16 ar
    30   15   36 1
    31   16   17 ar
    32   16   18 1
    33   17   37 1
    34   18   38 1
    35   19   24 ar
    36   19   20 ar
    37   20   21 ar
    38   20   39 1
    39   21   22 ar
    40   21   40 1
    41   22   23 ar
    42   22   26 1
    43   23   24 ar
    44   23   41 1
    45   24   25 1
    46   26   42 1
@<TRIPOS>MOLECULE
CHEMBL362428
   68    72     0     0     0
SMALL
USER_CHARGES

@<TRIPOS>ATOM
      1 C1          0.4656    2.1110   -0.0081 C.3       1 <0>        -0.1485
      2 C2          0.5794    0.5881   -0.1004 C.3       1 <0>        -0.0422
      3 H1          1.1826    0.3213   -0.9682 H         1 <0>         0.0958
      4 C3         -0.7973   -0.0103   -0.2432 C.ar      1 <0>        -0.1647
      5 C4         -1.4183    0.0372   -1.4808 C.ar      1 <0>        -0.0663
      6 C5         -2.6800   -0.4959   -1.6498 C.ar      1 <0>        -0.1719
      7 C6         -3.3330   -1.0835   -0.5752 C.ar      1 <0>         0.1443
      8 C7         -2.7145   -1.1346    0.6625 C.ar      1 <0>        -0.1784
      9 C8         -1.4425   -0.5987    0.8309 C.ar      1 <0>         0.1525
     10 O1         -0.8642   -0.6775    2.0577 O.3       1 <0>        -0.3002
     11 C9          0.2497    0.1749    2.3268 C.3       1 <0>         0.1432
     12 H2         -0.0896    1.2075    2.4087 H         1 <0>         0.0900
     13 C10         1.2456    0.0493    1.1680 C.3       1 <0>        -0.0711
     14 H3          2.1402    0.6316    1.3889 H         1 <0>         0.1017
     15 C11         1.6163   -1.3981    0.9715 C.ar      1 <0>        -0.0871
     16 C12         0.8017   -2.2230    0.2182 C.ar      1 <0>        -0.1011
     17 C13         1.1391   -3.5503    0.0369 C.ar      1 <0>        -0.1424
     18 C14         2.2966   -4.0552    0.6112 C.ar      1 <0>         0.1081
     19 C15         3.1126   -3.2253    1.3663 C.ar      1 <0>        -0.1484
     20 C16         2.7734   -1.8975    1.5402 C.ar      1 <0>        -0.0910
     21 O2          2.6305   -5.3607    0.4347 O.3       1 <0>        -0.5011
     22 C17         0.9112   -0.2455    3.6139 C.ar      1 <0>        -0.1057
     23 C18         1.0631   -1.5886    3.9051 C.ar      1 <0>        -0.0366
     24 C19         1.6687   -1.9766    5.0846 C.ar      1 <0>        -0.1425
     25 C20         2.1252   -1.0174    5.9768 C.ar      1 <0>         0.1204
     26 C21         1.9721    0.3296    5.6820 C.ar      1 <0>        -0.2044
     27 C22         1.3704    0.7124    4.4988 C.ar      1 <0>        -0.0625
     28 O3          2.7210   -1.3965    7.1379 O.3       1 <0>        -0.3275
     29 C23         3.1665   -0.3548    8.0088 C.3       1 <0>         0.0255
     30 C24         3.8061   -0.9705    9.2549 C.3       1 <0>        -0.0013
     31 N1          5.0163   -1.7090    8.8701 N.4       1 <0>        -0.3843
     32 C25         5.5381   -2.4319   10.0361 C.3       1 <0>        -0.0070
     33 C26         6.7516   -3.2670    9.6221 C.3       1 <0>        -0.1469
     34 C27         7.8368   -2.3401    9.0667 C.3       1 <0>        -0.1389
     35 C28         7.2590   -1.5369    7.8979 C.3       1 <0>        -0.1453
     36 C29         6.0266   -0.7659    8.3757 C.3       1 <0>        -0.0131
     37 O4         -4.5765   -1.6071   -0.7374 O.3       1 <0>        -0.4947
     38 H4          1.4606    2.5443    0.0936 H         1 <0>         0.0642
     39 H5         -0.0074    2.4955   -0.9118 H         1 <0>         0.0671
     40 H6         -0.1375    2.3784    0.8595 H         1 <0>         0.0567
     41 H7         -0.9122    0.4943   -2.3182 H         1 <0>         0.1325
     42 H8         -3.1586   -0.4562   -2.6172 H         1 <0>         0.1341
     43 H9         -3.2218   -1.5911    1.4996 H         1 <0>         0.1374
     44 H10        -0.0994   -1.8295   -0.2286 H         1 <0>         0.1428
     45 H11         0.5021   -4.1945   -0.5510 H         1 <0>         0.1278
     46 H12         4.0142   -3.6160    1.8144 H         1 <0>         0.1252
     47 H13         3.4106   -1.2499    2.1243 H         1 <0>         0.1200
     48 H14         3.1812   -5.5242   -0.3432 H         1 <0>         0.3933
     49 H15         0.7075   -2.3349    3.2102 H         1 <0>         0.1379
     50 H16         1.7865   -3.0258    5.3120 H         1 <0>         0.1334
     51 H17         2.3266    1.0782    6.3750 H         1 <0>         0.1296
     52 H18         1.2549    1.7609    4.2668 H         1 <0>         0.1328
     53 H19         3.9005    0.2626    7.4910 H         1 <0>         0.0862
     54 H20         2.3166    0.2609    8.3032 H         1 <0>         0.1096
     55 H21         4.0709   -0.1792    9.9561 H         1 <0>         0.1490
     56 H22         3.0990   -1.6526    9.7270 H         1 <0>         0.1428
     57 H23         5.8343   -1.7169   10.8037 H         1 <0>         0.1292
     58 H24         4.7636   -3.0887   10.4322 H         1 <0>         0.1311
     59 H25         7.1386   -3.8016   10.4896 H         1 <0>         0.1131
     60 H26         6.4564   -3.9826    8.8548 H         1 <0>         0.0881
     61 H27         8.1687   -1.6577    9.8491 H         1 <0>         0.0821
     62 H28         8.6809   -2.9351    8.7181 H         1 <0>         0.0947
     63 H29         8.0086   -0.8348    7.5329 H         1 <0>         0.1121
     64 H30         6.9743   -2.2166    7.0947 H         1 <0>         0.0878
     65 H31         5.6129   -0.1928    7.5460 H         1 <0>         0.1271
     66 H32         6.3125   -0.0864    9.1787 H         1 <0>         0.1302
     67 H33        -4.5803   -2.5392   -0.9948 H         1 <0>         0.3963
     68 H34         4.7889   -2.3691    8.1417 H         1 <0>         0.4295
@<TRIPOS>BOND
     1    1    2 1
     2    1   38 1
     3    1   39 1
     4    1   40 1
     5    2    3 1
     6    2   13 1
     7    2    4 1
     8    4    9 ar
     9    4    5 ar
    10    5    6 ar
    11    5   41 1
    12    6    7 ar
    13    6   42 1
    14    7    8 ar
    15    7   37 1
    16    8    9 ar
    17    8   43 1
    18    9   10 1
    19   10   11 1
    20   11   12 1
    21   11   13 1
    22   11   22 1
    23   13   14 1
    24   13   15 1
    25   15   20 ar
    26   15   16 ar
    27   16   17 ar
    28   16   44 1
    29   17   18 ar
    30   17   45 1
    31   18   19 ar
    32   18   21 1
    33   19   20 ar
    34   19   46 1
    35   20   47 1
    36   21   48 1
    37   22   27 ar
    38   22   23 ar
    39   23   24 ar
    40   23   49 1
    41   24   25 ar
    42   24   50 1
    43   25   26 ar
    44   25   28 1
    45   26   27 ar
    46   26   51 1
    47   27   52 1
    48   28   29 1
    49   29   30 1
    50   29   53 1
    51   29   54 1
    52   30   31 1
    53   30   55 1
    54   30   56 1
    55   31   36 1
    56   31   32 1
    57   31   68 1
    58   32   33 1
    59   32   57 1
    60   32   58 1
    61   33   34 1
    62   33   59 1
    63   33   60 1
    64   34   35 1
    65   34   61 1
    66   34   62 1
    67   35   36 1
    68   35   63 1
    69   35   64 1
    70   36   65 1
    71   36   66 1
    72   37   67 1
@<TRIPOS>MOLECULE
CHEMBL204922
   31    33     0     0     0
SMALL
USER_CHARGES

@<TRIPOS>ATOM
      1 C1         -0.0184    1.5028    0.0103 C.3       1 <0>        -0.1226
      2 C2          0.0021   -0.0041    0.0020 C.ar      1 <0>        -0.0296
      3 C3          0.0060   -0.6974   -1.1978 C.ar      1 <0>         0.0958
      4 C4          0.0252   -2.0885   -1.2105 C.ar      1 <0>        -0.0962
      5 C5          0.0422   -2.8038   -0.0299 C.ar      1 <0>        -0.1045
      6 C6          0.0395   -2.1259    1.1805 C.ar      1 <0>        -0.0002
      7 C7          0.0230   -0.7118    1.1966 C.ar      1 <0>        -0.1658
      8 C8          0.0214   -0.0503    2.5141 C.2       1 <0>         0.5338
      9 O1          0.4499    1.0792    2.6531 O.2       1 <0>        -0.4238
     10 O2         -0.4753   -0.7468    3.5635 O.3       1 <0>        -0.2793
     11 C9         -0.1937   -2.0714    3.6461 C.ar      1 <0>         0.1414
     12 C10         0.0585   -2.8165    2.4845 C.ar      1 <0>        -0.1201
     13 C11         0.3357   -4.1781    2.5757 C.ar      1 <0>        -0.0572
     14 C12         0.3523   -4.7930    3.8090 C.ar      1 <0>        -0.1521
     15 C13         0.0932   -4.0571    4.9601 C.ar      1 <0>         0.1472
     16 C14        -0.1654   -2.7021    4.8799 C.ar      1 <0>        -0.1177
     17 C15        -0.4396   -1.9142    6.1349 C.3       1 <0>        -0.1074
     18 O3          0.1141   -4.6703    6.1720 O.3       1 <0>        -0.4871
     19 O4         -0.0097   -0.0129   -2.3719 O.3       1 <0>        -0.4886
     20 H1          1.0042    1.8801    0.0026 H         1 <0>         0.0838
     21 H2         -0.5455    1.8639   -0.8728 H         1 <0>         0.0803
     22 H3         -0.5286    1.8543    0.9071 H         1 <0>         0.0803
     23 H4          0.0266   -2.6142   -2.1539 H         1 <0>         0.1432
     24 H5          0.0571   -3.8835   -0.0485 H         1 <0>         0.1436
     25 H6          0.5368   -4.7508    1.6824 H         1 <0>         0.1427
     26 H7          0.5667   -5.8490    3.8816 H         1 <0>         0.1428
     27 H8         -1.5076   -1.9367    6.3519 H         1 <0>         0.0784
     28 H9          0.1096   -2.3541    6.9673 H         1 <0>         0.0737
     29 H10        -0.1193   -0.8820    5.9932 H         1 <0>         0.0736
     30 H11         0.9811   -4.6658    6.6002 H         1 <0>         0.3969
     31 H12         0.8691    0.1978   -2.7161 H         1 <0>         0.3947
@<TRIPOS>BOND
     1    1    2 1
     2    1   20 1
     3    1   21 1
     4    1   22 1
     5    2    7 ar
     6    2    3 ar
     7    3    4 ar
     8    3   19 1
     9    4    5 ar
    10    4   23 1
    11    5    6 ar
    12    5   24 1
    13    6   12 1
    14    6    7 ar
    15    7    8 1
    16    8    9 2
    17    8   10 1
    18   10   11 1
    19   11   16 ar
    20   11   12 ar
    21   12   13 ar
    22   13   14 ar
    23   13   25 1
    24   14   15 ar
    25   14   26 1
    26   15   16 ar
    27   15   18 1
    28   16   17 1
    29   17   27 1
    30   17   28 1
    31   17   29 1
    32   18   30 1
    33   19   31 1
@<TRIPOS>MOLECULE
CHEMBL183782
   27    29     0     0     0
SMALL
USER_CHARGES

@<TRIPOS>ATOM
      1 C1         -0.0169    1.3920    0.0097 C.ar      1 <0>        -0.0746
      2 C2          1.1685    2.0955    0.0022 C.ar      1 <0>        -0.1436
      3 C3          2.3804    1.4176   -0.0131 C.ar      1 <0>         0.1229
      4 C4          2.4035    0.0291   -0.0212 C.ar      1 <0>        -0.1430
      5 C5          1.2226   -0.6818   -0.0142 C.ar      1 <0>        -0.0721
      6 C6          0.0021   -0.0041    0.0020 C.ar      1 <0>        -0.0432
      7 C7         -1.2663   -0.7623    0.0105 C.2       1 <0>         0.0910
      8 C8         -1.3659   -2.1133    0.0097 C.2       1 <0>        -0.1888
      9 C9         -2.7994   -2.4149    0.0205 C.ar      1 <0>        -0.1034
     10 C10        -3.5441   -3.5958    0.0245 C.ar      1 <0>        -0.0806
     11 C11        -4.9240   -3.5315    0.0350 C.ar      1 <0>         0.0988
     12 C12        -5.5666   -2.2968    0.0415 C.ar      1 <0>        -0.0867
     13 C13        -4.8389   -1.1254    0.0376 C.ar      1 <0>        -0.0656
     14 C14        -3.4500   -1.1690    0.0271 C.ar      1 <0>         0.0718
     15 O1         -2.4967   -0.2133    0.0262 O.3       1 <0>        -0.1759
     16 Br1        -5.7317    0.5415    0.0459 Br        1 <0>        -0.0262
     17 O2         -5.6564   -4.6772    0.0385 O.3       1 <0>        -0.4882
     18 O3          3.5466    2.1146   -0.0204 O.3       1 <0>        -0.4975
     19 H1         -0.9589    1.9199    0.0260 H         1 <0>         0.1366
     20 H2          1.1547    3.1754    0.0077 H         1 <0>         0.1372
     21 H3          3.3481   -0.4944   -0.0334 H         1 <0>         0.1389
     22 H4          1.2415   -1.7617   -0.0209 H         1 <0>         0.1364
     23 H5         -0.5529   -2.8242    0.0025 H         1 <0>         0.1672
     24 H6         -3.0447   -4.5534    0.0191 H         1 <0>         0.1443
     25 H7         -6.6458   -2.2557    0.0493 H         1 <0>         0.1531
     26 H8         -5.8616   -5.0101    0.9229 H         1 <0>         0.3952
     27 H9          3.8926    2.3117    0.8608 H         1 <0>         0.3960
@<TRIPOS>BOND
     1    1    6 ar
     2    1    2 ar
     3    1   19 1
     4    2    3 ar
     5    2   20 1
     6    3    4 ar
     7    3   18 1
     8    4    5 ar
     9    4   21 1
    10    5    6 ar
    11    5   22 1
    12    6    7 1
    13    7   15 1
    14    7    8 2
    15    8    9 1
    16    8   23 1
    17    9   14 ar
    18    9   10 ar
    19   10   11 ar
    20   10   24 1
    21   11   12 ar
    22   11   17 1
    23   12   13 ar
    24   12   25 1
    25   13   14 ar
    26   13   16 1
    27   14   15 1
    28   17   26 1
    29   18   27 1
@<TRIPOS>MOLECULE
CHEMBL196131
   63    68     0     0     0
SMALL
USER_CHARGES

@<TRIPOS>ATOM
      1 C1          0.0438    1.0466    0.0482 C.ar      1 <0>        -0.0552
      2 C2          1.1882    1.8192    0.0061 C.ar      1 <0>        -0.1398
      3 C3          2.4352    1.2115    0.0270 C.ar      1 <0>         0.1237
      4 C4          2.5294   -0.1712    0.0902 C.ar      1 <0>        -0.2005
      5 C5          1.3820   -0.9394    0.1320 C.ar      1 <0>        -0.0632
      6 C6          0.1404   -0.3313    0.1110 C.ar      1 <0>        -0.1352
      7 C7         -1.1097   -1.1716    0.1572 C.3       1 <0>         0.1478
      8 N1         -1.5231   -1.5075   -1.2075 N.pl3     1 <0>        -0.4679
      9 C8         -2.3726   -0.7457   -1.9809 C.ar      1 <0>         0.1321
     10 C9         -3.0426    0.4523   -1.7535 C.ar      1 <0>        -0.1199
     11 C10        -3.8445    0.9926   -2.7341 C.ar      1 <0>        -0.1036
     12 C11        -3.9947    0.3496   -3.9596 C.ar      1 <0>         0.0830
     13 C12        -3.3390   -0.8400   -4.2051 C.ar      1 <0>        -0.0877
     14 C13        -2.5217   -1.3978   -3.2181 C.ar      1 <0>        -0.0425
     15 C14        -1.7056   -2.6018   -3.1374 C.2       1 <0>        -0.1759
     16 C15        -1.1046   -2.6470   -1.9127 C.2       1 <0>         0.0951
     17 C16        -0.2267   -3.8029   -1.6500 C.ar      1 <0>        -0.0741
     18 C17         0.5016   -4.0796   -0.4695 C.ar      1 <0>        -0.0739
     19 C18         1.2748   -5.1941   -0.3758 C.ar      1 <0>        -0.1431
     20 C19         1.3773   -6.0975   -1.4309 C.ar      1 <0>         0.1373
     21 C20         0.6773   -5.8580   -2.6028 C.ar      1 <0>        -0.0970
     22 C21        -0.1083   -4.7289   -2.7029 C.ar      1 <0>        -0.0869
     23 S1         -1.1479   -4.0613   -3.9761 S.3       1 <0>         0.1202
     24 O1          2.1574   -7.2044   -1.3125 O.3       1 <0>        -0.4917
     25 O2         -4.7904    0.8952   -4.9181 O.3       1 <0>        -0.4933
     26 O3          3.5625    1.9693   -0.0147 O.3       1 <0>        -0.3271
     27 C22         4.8117    1.2758    0.0102 C.3       1 <0>         0.0249
     28 C23         5.9580    2.2878   -0.0434 C.3       1 <0>        -0.0007
     29 N2          5.9254    3.1288    1.1606 N.4       1 <0>        -0.3841
     30 C24         6.9247    4.1968    1.0368 C.3       1 <0>        -0.0073
     31 C25         6.8396    5.1234    2.2516 C.3       1 <0>        -0.1466
     32 C26         7.1096    4.3145    3.5236 C.3       1 <0>        -0.1391
     33 C27         6.1082    3.1588    3.6040 C.3       1 <0>        -0.1451
     34 C28         6.2203    2.3050    2.3391 C.3       1 <0>        -0.0133
     35 H1         -0.9271    1.5194    0.0364 H         1 <0>         0.1363
     36 H2          1.1123    2.8954   -0.0434 H         1 <0>         0.1366
     37 H3          3.4990   -0.6467    0.1062 H         1 <0>         0.1301
     38 H4          1.4548   -2.0158    0.1812 H         1 <0>         0.1330
     39 H5         -0.9110   -2.0882    0.7126 H         1 <0>         0.0981
     40 H6         -1.9050   -0.6130    0.6507 H         1 <0>         0.1037
     41 H7         -2.9338    0.9592   -0.8061 H         1 <0>         0.1273
     42 H8         -4.3616    1.9229   -2.5506 H         1 <0>         0.1385
     43 H9         -3.4572   -1.3379   -5.1562 H         1 <0>         0.1346
     44 H10         0.4432   -3.3981    0.3663 H         1 <0>         0.1252
     45 H11         1.8215   -5.3828    0.5363 H         1 <0>         0.1361
     46 H12         0.7466   -6.5488   -3.4301 H         1 <0>         0.1460
     47 H13         1.6943   -7.9760   -0.9587 H         1 <0>         0.3998
     48 H14        -4.3290    1.5004   -5.5148 H         1 <0>         0.3901
     49 H15         4.8850    0.6921    0.9278 H         1 <0>         0.0872
     50 H16         4.8746    0.6096   -0.8502 H         1 <0>         0.1098
     51 H17         6.9090    1.7574   -0.0905 H         1 <0>         0.1498
     52 H18         5.8477    2.9152   -0.9279 H         1 <0>         0.1430
     53 H19         7.9209    3.7574    0.9846 H         1 <0>         0.1295
     54 H20         6.7332    4.7695    0.1294 H         1 <0>         0.1312
     55 H21         7.5835    5.9146    2.1586 H         1 <0>         0.1134
     56 H22         5.8439    5.5635    2.3046 H         1 <0>         0.0879
     57 H23         8.1239    3.9165    3.4940 H         1 <0>         0.0823
     58 H24         6.9946    4.9579    4.3959 H         1 <0>         0.0950
     59 H25         6.3292    2.5457    4.4777 H         1 <0>         0.1124
     60 H26         5.0972    3.5581    3.6851 H         1 <0>         0.0877
     61 H27         5.5088    1.4810    2.3932 H         1 <0>         0.1267
     62 H28         7.2315    1.9059    2.2591 H         1 <0>         0.1306
     63 H29         5.0086    3.5385    1.2588 H         1 <0>         0.4291
@<TRIPOS>BOND
     1    1    6 ar
     2    1    2 ar
     3    1   35 1
     4    2    3 ar
     5    2   36 1
     6    3    4 ar
     7    3   26 1
     8    4    5 ar
     9    4   37 1
    10    5    6 ar
    11    5   38 1
    12    6    7 1
    13    7    8 1
    14    7   39 1
    15    7   40 1
    16    8   16 1
    17    8    9 1
    18    9   14 ar
    19    9   10 ar
    20   10   11 ar
    21   10   41 1
    22   11   12 ar
    23   11   42 1
    24   12   13 ar
    25   12   25 1
    26   13   14 ar
    27   13   43 1
    28   14   15 1
    29   15   23 1
    30   15   16 2
    31   16   17 1
    32   17   22 ar
    33   17   18 ar
    34   18   19 ar
    35   18   44 1
    36   19   20 ar
    37   19   45 1
    38   20   21 ar
    39   20   24 1
    40   21   22 ar
    41   21   46 1
    42   22   23 1
    43   24   47 1
    44   25   48 1
    45   26   27 1
    46   27   28 1
    47   27   49 1
    48   27   50 1
    49   28   29 1
    50   28   51 1
    51   28   52 1
    52   29   34 1
    53   29   30 1
    54   29   63 1
    55   30   31 1
    56   30   53 1
    57   30   54 1
    58   31   32 1
    59   31   55 1
    60   31   56 1
    61   32   33 1
    62   32   57 1
    63   32   58 1
    64   33   34 1
    65   33   59 1
    66   33   60 1
    67   34   61 1
    68   34   62 1
@<TRIPOS>MOLECULE
CHEMBL377224
   44    48     0     0     0
SMALL
USER_CHARGES

@<TRIPOS>ATOM
      1 C1         -0.0167    1.3781    0.0096 C.ar      1 <0>        -0.1167
      2 C2          1.1709    2.0855    0.0021 C.ar      1 <0>        -0.1154
      3 C3          2.3773    1.4107   -0.0130 C.ar      1 <0>        -0.1096
      4 C4          2.3960    0.0285   -0.0201 C.ar      1 <0>        -0.0667
      5 C5          1.2084   -0.6789   -0.0117 C.ar      1 <0>        -0.1106
      6 C6          0.0021   -0.0041    0.0020 C.ar      1 <0>        -0.1142
      7 C7          3.7112   -0.7071   -0.0376 C.3       1 <0>         0.0017
      8 C8          4.5348   -0.3476   -1.2753 C.3       1 <0>        -0.1037
      9 C9          3.7647   -0.7854   -2.5248 C.3       1 <0>        -0.1602
     10 C10         3.4842   -2.2641   -2.4812 C.2       1 <0>         0.4016
     11 O1          3.3559   -2.8850   -3.5163 O.2       1 <0>        -0.4460
     12 C11         3.3655   -2.9590   -1.1935 C.2       1 <0>        -0.1290
     13 C12         3.5076   -2.2171   -0.0430 C.2       1 <0>         0.0487
     14 C13         3.5437   -2.6425    1.3424 C.ar      1 <0>        -0.1069
     15 C14         3.0519   -3.8202    1.9341 C.ar      1 <0>        -0.0414
     16 C15         3.2617   -3.9791    3.2804 C.ar      1 <0>        -0.1569
     17 C16         3.9300   -3.0268    4.0369 C.ar      1 <0>         0.1360
     18 C17         4.4114   -1.8433    3.4709 C.ar      1 <0>        -0.1365
     19 C18         4.1954   -1.6594    2.1222 C.ar      1 <0>        -0.0460
     20 C19         4.5083   -0.4685    1.2598 C.3       1 <0>        -0.0757
     21 O2          4.1208   -3.2507    5.3619 O.3       1 <0>        -0.4988
     22 C20         3.1013   -4.4095   -1.1344 C.2       1 <0>         0.0354
     23 C21         1.9717   -5.0342   -1.5666 C.2       1 <0>        -0.1791
     24 C22         2.1486   -6.4098   -1.3184 C.2       1 <0>        -0.2097
     25 C23         3.3633   -6.5564   -0.7536 C.2       1 <0>        -0.0397
     26 O3          3.9383   -5.3465   -0.6487 O.3       1 <0>        -0.1682
     27 H1         -0.9591    1.9053    0.0259 H         1 <0>         0.1234
     28 H2          1.1563    3.1654    0.0076 H         1 <0>         0.1252
     29 H3          3.3051    1.9634   -0.0196 H         1 <0>         0.1258
     30 H4          1.2231   -1.7588   -0.0176 H         1 <0>         0.1201
     31 H5         -0.9258   -0.5567    0.0082 H         1 <0>         0.1233
     32 H6          4.6979    0.7298   -1.3054 H         1 <0>         0.0908
     33 H7          5.4943   -0.8634   -1.2382 H         1 <0>         0.0820
     34 H8          2.8212   -0.2417   -2.5746 H         1 <0>         0.1077
     35 H9          4.3574   -0.5577   -3.4108 H         1 <0>         0.1046
     36 H10         2.5310   -4.5671    1.3534 H         1 <0>         0.1345
     37 H11         2.8957   -4.8716    3.7660 H         1 <0>         0.1322
     38 H12         4.9299   -1.1050    4.0645 H         1 <0>         0.1427
     39 H13         5.5763   -0.4236    1.0468 H         1 <0>         0.0998
     40 H14         4.1778    0.4496    1.7455 H         1 <0>         0.0970
     41 H15         4.9444   -3.7135    5.5680 H         1 <0>         0.3959
     42 H16         1.1069   -4.5659   -2.0129 H         1 <0>         0.1471
     43 H17         1.4438   -7.1979   -1.5390 H         1 <0>         0.1510
     44 H18         3.8032   -7.4917   -0.4406 H         1 <0>         0.2042
@<TRIPOS>BOND
     1    1    6 ar
     2    1    2 ar
     3    1   27 1
     4    2    3 ar
     5    2   28 1
     6    3    4 ar
     7    3   29 1
     8    4    5 ar
     9    4    7 1
    10    5    6 ar
    11    5   30 1
    12    6   31 1
    13    7   13 1
    14    7   20 1
    15    7    8 1
    16    8    9 1
    17    8   32 1
    18    8   33 1
    19    9   10 1
    20    9   34 1
    21    9   35 1
    22   10   11 2
    23   10   12 1
    24   12   13 2
    25   12   22 1
    26   13   14 1
    27   14   19 ar
    28   14   15 ar
    29   15   16 ar
    30   15   36 1
    31   16   17 ar
    32   16   37 1
    33   17   18 ar
    34   17   21 1
    35   18   19 ar
    36   18   38 1
    37   19   20 1
    38   20   39 1
    39   20   40 1
    40   21   41 1
    41   22   26 1
    42   22   23 2
    43   23   24 1
    44   23   42 1
    45   24   25 2
    46   24   43 1
    47   25   26 1
    48   25   44 1
@<TRIPOS>MOLECULE
CHEMBL377224__1
   44    48     0     0     0
SMALL
USER_CHARGES

@<TRIPOS>ATOM
      1 C1         -0.0167    1.3781    0.0096 C.ar      1 <0>        -0.1169
      2 C2          1.1709    2.0855    0.0021 C.ar      1 <0>        -0.1157
      3 C3          2.3773    1.4107   -0.0130 C.ar      1 <0>        -0.1095
      4 C4          2.3960    0.0285   -0.0201 C.ar      1 <0>        -0.0664
      5 C5          1.2084   -0.6789   -0.0117 C.ar      1 <0>        -0.1107
      6 C6          0.0021   -0.0041    0.0020 C.ar      1 <0>        -0.1143
      7 C7          3.7112   -0.7071   -0.0376 C.3       1 <0>         0.0014
      8 C8          4.5606   -0.3599    1.1862 C.3       1 <0>        -0.1035
      9 C9          3.8168   -0.8102    2.4471 C.3       1 <0>        -0.1602
     10 C10         3.5353   -2.2885    2.3947 C.2       1 <0>         0.4014
     11 O1          3.4279   -2.9195    3.4260 O.2       1 <0>        -0.4462
     12 C11         3.3896   -2.9705    1.1028 C.2       1 <0>        -0.1292
     13 C12         3.5076   -2.2171   -0.0430 C.2       1 <0>         0.0483
     14 C13         3.5146   -2.6287   -1.4329 C.ar      1 <0>        -0.1085
     15 C14         3.0104   -3.8004   -2.0260 C.ar      1 <0>        -0.0473
     16 C15         3.1920   -3.9459   -3.3779 C.ar      1 <0>        -0.1581
     17 C16         3.8447   -2.9862   -4.1386 C.ar      1 <0>         0.1360
     18 C17         4.3380   -1.8084   -3.5711 C.ar      1 <0>        -0.1367
     19 C18         4.1500   -1.6378   -2.2164 C.ar      1 <0>        -0.0452
     20 C19         4.4809   -0.4555   -1.3489 C.3       1 <0>        -0.0757
     21 O2          4.0081   -3.1971   -5.4694 O.3       1 <0>        -0.4984
     22 C20         3.1250   -4.4205    1.0347 C.2       1 <0>         0.0354
     23 C21         3.9658   -5.4066    1.4515 C.2       1 <0>        -0.1747
     24 C22         3.3130   -6.6296    1.1998 C.2       1 <0>        -0.2071
     25 C23         2.1195   -6.3342    0.6481 C.2       1 <0>        -0.0413
     26 O3          2.0070   -4.9985    0.5548 O.3       1 <0>        -0.1724
     27 H1         -0.9591    1.9053    0.0259 H         1 <0>         0.1233
     28 H2          1.1563    3.1654    0.0076 H         1 <0>         0.1253
     29 H3          3.3051    1.9634   -0.0196 H         1 <0>         0.1260
     30 H4          1.2231   -1.7588   -0.0176 H         1 <0>         0.1205
     31 H5         -0.9258   -0.5567    0.0082 H         1 <0>         0.1232
     32 H6          5.5191   -0.8752    1.1238 H         1 <0>         0.0827
     33 H7          4.7244    0.7171    1.2236 H         1 <0>         0.0904
     34 H8          4.4280   -0.5913    3.3227 H         1 <0>         0.1047
     35 H9          2.8747   -0.2671    2.5221 H         1 <0>         0.1070
     36 H10         2.5023   -4.5535   -1.4419 H         1 <0>         0.1408
     37 H11         2.8161   -4.8337   -3.8646 H         1 <0>         0.1320
     38 H12         4.8450   -1.0646   -4.1678 H         1 <0>         0.1429
     39 H13         4.1404    0.4674   -1.8184 H         1 <0>         0.0968
     40 H14         5.5532   -0.4126   -1.1580 H         1 <0>         0.1001
     41 H15         3.2836   -2.8585   -6.0131 H         1 <0>         0.3957
     42 H16         4.9442   -5.2766    1.8900 H         1 <0>         0.1474
     43 H17         3.6967   -7.6172    1.4091 H         1 <0>         0.1514
     44 H18         1.3752   -7.0520    0.3363 H         1 <0>         0.2055
@<TRIPOS>BOND
     1    1    6 ar
     2    1    2 ar
     3    1   27 1
     4    2    3 ar
     5    2   28 1
     6    3    4 ar
     7    3   29 1
     8    4    5 ar
     9    4    7 1
    10    5    6 ar
    11    5   30 1
    12    6   31 1
    13    7   13 1
    14    7   20 1
    15    7    8 1
    16    8    9 1
    17    8   32 1
    18    8   33 1
    19    9   10 1
    20    9   34 1
    21    9   35 1
    22   10   11 2
    23   10   12 1
    24   12   13 2
    25   12   22 1
    26   13   14 1
    27   14   19 ar
    28   14   15 ar
    29   15   16 ar
    30   15   36 1
    31   16   17 ar
    32   16   37 1
    33   17   18 ar
    34   17   21 1
    35   18   19 ar
    36   18   38 1
    37   19   20 1
    38   20   39 1
    39   20   40 1
    40   21   41 1
    41   22   26 1
    42   22   23 2
    43   23   24 1
    44   23   42 1
    45   24   25 2
    46   24   43 1
    47   25   26 1
    48   25   44 1
@<TRIPOS>MOLECULE
CHEMBL213838
   70    75     0     0     0
SMALL
USER_CHARGES

@<TRIPOS>ATOM
      1 C1          0.0381    1.5003    0.4440 C.ar      1 <0>        -0.1213
      2 C2          1.2278    2.1919    0.3131 C.ar      1 <0>        -0.1164
      3 C3          2.4259    1.5039    0.2681 C.ar      1 <0>        -0.1167
      4 C4          2.4344    0.1243    0.3545 C.ar      1 <0>        -0.0780
      5 C5          1.2448   -0.5673    0.4864 C.ar      1 <0>        -0.1165
      6 C6          0.0465    0.1206    0.5299 C.ar      1 <0>        -0.1161
      7 C7          3.7405   -0.6258    0.3045 C.3       1 <0>        -0.0628
      8 C8          4.2895   -0.7890    1.7233 C.3       1 <0>        -0.0291
      9 C9          4.5278    0.5678    2.3883 C.3       1 <0>        -0.1076
     10 C10         5.5914    1.3272    1.5890 C.3       1 <0>        -0.1664
     11 C11         6.8647    0.5270    1.5149 C.2       1 <0>         0.3946
     12 O1          7.9290    1.0970    1.3874 O.2       1 <0>        -0.4495
     13 C12         6.8271   -0.9361    1.5953 C.2       1 <0>        -0.1417
     14 C13         5.6131   -1.5433    1.7273 C.2       1 <0>         0.0196
     15 C14         5.2888   -2.9422    1.9338 C.ar      1 <0>        -0.0980
     16 C15         6.0513   -4.0912    1.6574 C.ar      1 <0>        -0.0486
     17 C16         5.5032   -5.3025    1.9953 C.ar      1 <0>        -0.1564
     18 C17         4.2513   -5.4029    2.5855 C.ar      1 <0>         0.1296
     19 C18         3.4718   -4.2743    2.8529 C.ar      1 <0>        -0.1376
     20 C19         4.0006   -3.0498    2.5058 C.ar      1 <0>        -0.0528
     21 C20         3.3754   -1.6849    2.5820 C.3       1 <0>        -0.0829
     22 O2          3.7711   -6.6297    2.9114 O.3       1 <0>        -0.5000
     23 C21         8.0745   -1.7339    1.5348 C.ar      1 <0>        -0.0738
     24 C22         8.4772   -2.4862    2.6380 C.ar      1 <0>        -0.0608
     25 C23         9.6385   -3.2273    2.5783 C.ar      1 <0>        -0.1518
     26 C24        10.4065   -3.2253    1.4217 C.ar      1 <0>         0.1380
     27 C25        10.0086   -2.4775    0.3216 C.ar      1 <0>        -0.2106
     28 C26         8.8454   -1.7386    0.3725 C.ar      1 <0>        -0.0524
     29 O3         11.5506   -3.9565    1.3664 O.3       1 <0>        -0.2969
     30 C27        12.2925   -3.9090    0.1459 C.3       1 <0>         0.0658
     31 C28        13.5387   -4.7876    0.2722 C.3       1 <0>         0.0544
     32 N1         13.1345   -6.1916    0.4254 N.3       1 <0>        -0.5303
     33 C29        14.2247   -6.9941    0.9988 C.3       1 <0>         0.0184
     34 C30        13.7422   -8.4335    1.1964 C.3       1 <0>         0.0631
     35 O4         13.2870   -8.9544   -0.0553 O.3       1 <0>        -0.3851
     36 C31        12.2249   -8.1974   -0.6419 C.3       1 <0>         0.0640
     37 C32        12.6920   -6.7556   -0.8581 C.3       1 <0>         0.0139
     38 H1         -0.8977    2.0380    0.4836 H         1 <0>         0.1212
     39 H2          1.2211    3.2698    0.2455 H         1 <0>         0.1223
     40 H3          3.3553    2.0443    0.1651 H         1 <0>         0.1218
     41 H4          1.2514   -1.6452    0.5535 H         1 <0>         0.1221
     42 H5         -0.8829   -0.4198    0.6325 H         1 <0>         0.1220
     43 H6          3.5783   -1.6088   -0.1376 H         1 <0>         0.0812
     44 H7          4.4563   -0.0690   -0.3002 H         1 <0>         0.0800
     45 H8          3.5995    1.1390    2.3964 H         1 <0>         0.0884
     46 H9          4.8763    0.4179    3.4102 H         1 <0>         0.0762
     47 H10         5.2215    1.5103    0.5801 H         1 <0>         0.1036
     48 H11         5.7935    2.2820    2.0744 H         1 <0>         0.1001
     49 H12         7.0268   -4.0227    1.1990 H         1 <0>         0.1375
     50 H13         6.0624   -6.2046    1.7957 H         1 <0>         0.1299
     51 H14         2.4976   -4.3580    3.3116 H         1 <0>         0.1396
     52 H15         3.3577   -1.3321    3.6132 H         1 <0>         0.0928
     53 H16         2.3668   -1.7053    2.1691 H         1 <0>         0.0965
     54 H17         4.0032   -6.9184    3.8046 H         1 <0>         0.3946
     55 H18         7.8804   -2.4879    3.5381 H         1 <0>         0.1260
     56 H19         9.9511   -3.8098    3.4323 H         1 <0>         0.1316
     57 H20        10.6085   -2.4779   -0.5764 H         1 <0>         0.1271
     58 H21         8.5339   -1.1610   -0.4853 H         1 <0>         0.1219
     59 H22        11.6711   -4.2751   -0.6714 H         1 <0>         0.0627
     60 H23        12.5918   -2.8809   -0.0576 H         1 <0>         0.0677
     61 H24        14.1504   -4.6813   -0.6237 H         1 <0>         0.0615
     62 H25        14.1146   -4.4781    1.1443 H         1 <0>         0.0887
     63 H26        15.0781   -6.9861    0.3207 H         1 <0>         0.0436
     64 H27        14.5192   -6.5737    1.9604 H         1 <0>         0.0886
     65 H28        14.5643   -9.0453    1.5679 H         1 <0>         0.0993
     66 H29        12.9234   -8.4474    1.9158 H         1 <0>         0.0613
     67 H30        11.9496   -8.6383   -1.6000 H         1 <0>         0.0986
     68 H31        11.3620   -8.2044    0.0240 H         1 <0>         0.0608
     69 H32        11.8677   -6.1611   -1.2520 H         1 <0>         0.0849
     70 H33        13.5209   -6.7438   -1.5659 H         1 <0>         0.0445
@<TRIPOS>BOND
     1    1    6 ar
     2    1    2 ar
     3    1   38 1
     4    2    3 ar
     5    2   39 1
     6    3    4 ar
     7    3   40 1
     8    4    5 ar
     9    4    7 1
    10    5    6 ar
    11    5   41 1
    12    6   42 1
    13    7    8 1
    14    7   43 1
    15    7   44 1
    16    8   14 1
    17    8   21 1
    18    8    9 1
    19    9   10 1
    20    9   45 1
    21    9   46 1
    22   10   11 1
    23   10   47 1
    24   10   48 1
    25   11   12 2
    26   11   13 1
    27   13   14 2
    28   13   23 1
    29   14   15 1
    30   15   20 ar
    31   15   16 ar
    32   16   17 ar
    33   16   49 1
    34   17   18 ar
    35   17   50 1
    36   18   19 ar
    37   18   22 1
    38   19   20 ar
    39   19   51 1
    40   20   21 1
    41   21   52 1
    42   21   53 1
    43   22   54 1
    44   23   28 ar
    45   23   24 ar
    46   24   25 ar
    47   24   55 1
    48   25   26 ar
    49   25   56 1
    50   26   27 ar
    51   26   29 1
    52   27   28 ar
    53   27   57 1
    54   28   58 1
    55   29   30 1
    56   30   31 1
    57   30   59 1
    58   30   60 1
    59   31   32 1
    60   31   61 1
    61   31   62 1
    62   32   37 1
    63   32   33 1
    64   33   34 1
    65   33   63 1
    66   33   64 1
    67   34   35 1
    68   34   65 1
    69   34   66 1
    70   35   36 1
    71   36   37 1
    72   36   67 1
    73   36   68 1
    74   37   69 1
    75   37   70 1
@<TRIPOS>MOLECULE
CHEMBL213838__1
   71    76     0     0     0
SMALL
USER_CHARGES

@<TRIPOS>ATOM
      1 C1          0.0103    1.3468   -0.8168 C.ar      1 <0>        -0.1181
      2 C2          1.1994    2.0513   -0.8432 C.ar      1 <0>        -0.1150
      3 C3          2.4041    1.3768   -0.7754 C.ar      1 <0>        -0.1168
      4 C4          2.4197   -0.0022   -0.6807 C.ar      1 <0>        -0.0828
      5 C5          1.2307   -0.7067   -0.6533 C.ar      1 <0>        -0.1169
      6 C6          0.0260   -0.0323   -0.7225 C.ar      1 <0>        -0.1149
      7 C7          3.7331   -0.7376   -0.6078 C.3       1 <0>        -0.0609
      8 C8          4.1529   -0.8879    0.8558 C.3       1 <0>        -0.0306
      9 C9          4.3150    0.4747    1.5320 C.3       1 <0>        -0.1091
     10 C10         5.4384    1.2424    0.8280 C.3       1 <0>        -0.1673
     11 C11         6.7219    0.4563    0.8743 C.2       1 <0>         0.3981
     12 O1          7.7870    1.0379    0.8406 O.2       1 <0>        -0.4522
     13 C12         6.6931   -1.0066    0.9593 C.2       1 <0>        -0.1622
     14 C13         5.4788   -1.6271    0.9841 C.2       1 <0>         0.0355
     15 C14         5.1524   -3.0285    1.1684 C.ar      1 <0>        -0.1054
     16 C15         5.9494   -4.1700    0.9688 C.ar      1 <0>        -0.0520
     17 C16         5.3861   -5.3859    1.2625 C.ar      1 <0>        -0.1602
     18 C17         4.0870   -5.4978    1.7374 C.ar      1 <0>         0.1357
     19 C18         3.2742   -4.3769    1.9266 C.ar      1 <0>        -0.1352
     20 C19         3.8188   -3.1481    1.6218 C.ar      1 <0>        -0.0444
     21 C20         3.1744   -1.7900    1.6332 C.3       1 <0>        -0.0868
     22 O2          3.5926   -6.7284    2.0253 O.3       1 <0>        -0.4987
     23 C21         7.9494   -1.7904    1.0167 C.ar      1 <0>        -0.0432
     24 C22         8.2586   -2.5329    2.1561 C.ar      1 <0>        -0.0613
     25 C23         9.4285   -3.2611    2.2062 C.ar      1 <0>        -0.1396
     26 C24        10.2983   -3.2557    1.1240 C.ar      1 <0>         0.1123
     27 C25         9.9936   -2.5177   -0.0119 C.ar      1 <0>        -0.1993
     28 C26         8.8226   -1.7919   -0.0709 C.ar      1 <0>        -0.0543
     29 O3         11.4506   -3.9740    1.1768 O.3       1 <0>        -0.3290
     30 C27        12.2995   -3.9239    0.0284 C.3       1 <0>         0.0250
     31 C28        13.5387   -4.7876    0.2722 C.3       1 <0>         0.0000
     32 N1         13.1345   -6.1916    0.4254 N.4       1 <0>        -0.3867
     33 C29        14.3028   -6.9995    0.8015 C.3       1 <0>        -0.0439
     34 C30        13.8791   -8.4618    0.9608 C.3       1 <0>         0.0355
     35 O4         13.2956   -8.9195   -0.2623 O.3       1 <0>        -0.3558
     36 C31        12.1669   -8.1484   -0.6834 C.3       1 <0>         0.0373
     37 C32        12.5875   -6.6855   -0.8458 C.3       1 <0>        -0.0501
     38 H1         -0.9310    1.8740   -0.8652 H         1 <0>         0.1232
     39 H2          1.1871    3.1287   -0.9172 H         1 <0>         0.1238
     40 H3          3.3330    1.9272   -0.7968 H         1 <0>         0.1213
     41 H4          1.2430   -1.7841   -0.5797 H         1 <0>         0.1214
     42 H5         -0.9030   -0.5827   -0.7016 H         1 <0>         0.1234
     43 H6          3.6224   -1.7244   -1.0572 H         1 <0>         0.0806
     44 H7          4.4947   -0.1755   -1.1483 H         1 <0>         0.0797
     45 H8          3.3836    1.0353    1.4526 H         1 <0>         0.0919
     46 H9          4.5709    0.3335    2.5820 H         1 <0>         0.0769
     47 H10         5.1596    1.4165   -0.2113 H         1 <0>         0.1059
     48 H11         5.5852    2.2017    1.3243 H         1 <0>         0.1031
     49 H12         6.9616   -4.0926    0.6004 H         1 <0>         0.1325
     50 H13         5.9709   -6.2826    1.1196 H         1 <0>         0.1278
     51 H14         2.2633   -4.4695    2.2954 H         1 <0>         0.1433
     52 H15         3.0594   -1.4326    2.6565 H         1 <0>         0.0962
     53 H16         2.2078   -1.8239    1.1307 H         1 <0>         0.1005
     54 H17         3.7458   -7.0103    2.9375 H         1 <0>         0.3967
     55 H18         7.5827   -2.5372    2.9984 H         1 <0>         0.1339
     56 H19         9.6687   -3.8359    3.0884 H         1 <0>         0.1342
     57 H20        10.6725   -2.5154   -0.8518 H         1 <0>         0.1289
     58 H21         8.5840   -1.2219   -0.9566 H         1 <0>         0.1297
     59 H22        11.7590   -4.3008   -0.8398 H         1 <0>         0.0863
     60 H23        12.6049   -2.8934   -0.1529 H         1 <0>         0.1116
     61 H24        14.2182   -4.6955   -0.5751 H         1 <0>         0.1507
     62 H25        14.0419   -4.4533    1.1794 H         1 <0>         0.1448
     63 H26        15.0629   -6.9238    0.0238 H         1 <0>         0.1403
     64 H27        14.7094   -6.6340    1.7445 H         1 <0>         0.1441
     65 H28        14.7521   -9.0700    1.1975 H         1 <0>         0.1433
     66 H29        13.1486   -8.5435    1.7656 H         1 <0>         0.0817
     67 H30        11.8008   -8.5297   -1.6366 H         1 <0>         0.1426
     68 H31        11.3778   -8.2193    0.0651 H         1 <0>         0.0816
     69 H32        11.7206   -6.0869   -1.1256 H         1 <0>         0.1400
     70 H33        13.3481   -6.6099   -1.6228 H         1 <0>         0.1414
     71 H34        12.4306   -6.2625    1.1448 H         1 <0>         0.4300
@<TRIPOS>BOND
     1    1    6 ar
     2    1    2 ar
     3    1   38 1
     4    2    3 ar
     5    2   39 1
     6    3    4 ar
     7    3   40 1
     8    4    5 ar
     9    4    7 1
    10    5    6 ar
    11    5   41 1
    12    6   42 1
    13    7    8 1
    14    7   43 1
    15    7   44 1
    16    8   14 1
    17    8   21 1
    18    8    9 1
    19    9   10 1
    20    9   45 1
    21    9   46 1
    22   10   11 1
    23   10   47 1
    24   10   48 1
    25   11   12 2
    26   11   13 1
    27   13   14 2
    28   13   23 1
    29   14   15 1
    30   15   20 ar
    31   15   16 ar
    32   16   17 ar
    33   16   49 1
    34   17   18 ar
    35   17   50 1
    36   18   19 ar
    37   18   22 1
    38   19   20 ar
    39   19   51 1
    40   20   21 1
    41   21   52 1
    42   21   53 1
    43   22   54 1
    44   23   28 ar
    45   23   24 ar
    46   24   25 ar
    47   24   55 1
    48   25   26 ar
    49   25   56 1
    50   26   27 ar
    51   26   29 1
    52   27   28 ar
    53   27   57 1
    54   28   58 1
    55   29   30 1
    56   30   31 1
    57   30   59 1
    58   30   60 1
    59   31   32 1
    60   31   61 1
    61   31   62 1
    62   32   37 1
    63   32   33 1
    64   32   71 1
    65   33   34 1
    66   33   63 1
    67   33   64 1
    68   34   35 1
    69   34   65 1
    70   34   66 1
    71   35   36 1
    72   36   37 1
    73   36   67 1
    74   36   68 1
    75   37   69 1
    76   37   70 1
@<TRIPOS>MOLECULE
CHEMBL213838__2
   70    75     0     0     0
SMALL
USER_CHARGES

@<TRIPOS>ATOM
      1 C1         -0.1876    0.9917   -0.4088 C.ar      1 <0>        -0.1213
      2 C2          0.9889    1.7104   -0.5095 C.ar      1 <0>        -0.1163
      3 C3          2.2044    1.0520   -0.4950 C.ar      1 <0>        -0.1166
      4 C4          2.2432   -0.3249   -0.3794 C.ar      1 <0>        -0.0779
      5 C5          1.0667   -1.0435   -0.2779 C.ar      1 <0>        -0.1166
      6 C6         -0.1488   -0.3853   -0.2938 C.ar      1 <0>        -0.1161
      7 C7          3.5682   -1.0427   -0.3647 C.3       1 <0>        -0.0628
      8 C8          4.0667   -1.1637    1.0768 C.3       1 <0>        -0.0292
      9 C9          3.0770   -1.9421    1.9454 C.3       1 <0>        -0.1077
     10 C10         2.9591   -3.3684    1.3988 C.3       1 <0>        -0.1662
     11 C11         4.3080   -4.0372    1.3790 C.2       1 <0>         0.3947
     12 O1          4.3836   -5.2457    1.4668 O.2       1 <0>        -0.4494
     13 C12         5.5304   -3.2381    1.2547 C.2       1 <0>        -0.1423
     14 C13         5.4072   -1.8842    1.1462 C.2       1 <0>         0.0191
     15 C14         6.4294   -0.8552    1.1172 C.ar      1 <0>        -0.0978
     16 C15         7.7927   -0.9527    0.7860 C.ar      1 <0>        -0.0610
     17 C16         8.5439    0.1910    0.8831 C.ar      1 <0>        -0.1567
     18 C17         7.9940    1.3982    1.2906 C.ar      1 <0>         0.1284
     19 C18         6.6385    1.5189    1.6081 C.ar      1 <0>        -0.1372
     20 C19         5.8653    0.3830    1.5007 C.ar      1 <0>        -0.0529
     21 C20         4.3822    0.2182    1.6821 C.3       1 <0>        -0.0827
     22 O2          8.7939    2.4908    1.3828 O.3       1 <0>        -0.4994
     23 C21         6.8642   -3.8839    1.2467 C.ar      1 <0>        -0.0714
     24 C22         7.6658   -3.8180    0.1072 C.ar      1 <0>        -0.0688
     25 C23         8.9064   -4.4200    0.1031 C.ar      1 <0>        -0.1536
     26 C24         9.3577   -5.0913    1.2315 C.ar      1 <0>         0.1394
     27 C25         8.5623   -5.1589    2.3675 C.ar      1 <0>        -0.2088
     28 C26         7.3231   -4.5541    2.3804 C.ar      1 <0>        -0.0499
     29 O3         10.5806   -5.6839    1.2240 O.3       1 <0>        -0.2965
     30 C27        10.9825   -6.3575    2.4185 C.3       1 <0>         0.0655
     31 C28        12.3761   -6.9574    2.2214 C.3       1 <0>         0.0545
     32 N1         13.3534   -5.8760    2.0391 N.3       1 <0>        -0.5304
     33 C29        14.5807   -6.3767    1.4031 C.3       1 <0>         0.0185
     34 C30        15.5453   -5.2093    1.1782 C.3       1 <0>         0.0631
     35 O4         15.8070   -4.5659    2.4283 O.3       1 <0>        -0.3851
     36 C31        14.6337   -4.0656    3.0751 C.3       1 <0>         0.0639
     37 C32        13.6599   -5.2214    3.3193 C.3       1 <0>         0.0139
     38 H1         -1.1370    1.5065   -0.4156 H         1 <0>         0.1212
     39 H2          0.9586    2.7862   -0.5998 H         1 <0>         0.1219
     40 H3          3.1236    1.6135   -0.5744 H         1 <0>         0.1218
     41 H4          1.0971   -2.1193   -0.1880 H         1 <0>         0.1220
     42 H5         -1.0680   -0.9467   -0.2148 H         1 <0>         0.1224
     43 H6          3.4470   -2.0381   -0.7919 H         1 <0>         0.0805
     44 H7          4.2927   -0.4803   -0.9537 H         1 <0>         0.0812
     45 H8          3.4385   -1.9732    2.9732 H         1 <0>         0.0760
     46 H9          2.1017   -1.4565    1.9131 H         1 <0>         0.0884
     47 H10         2.2817   -3.9419    2.0315 H         1 <0>         0.1002
     48 H11         2.5588   -3.3341    0.3856 H         1 <0>         0.1038
     49 H12         8.2297   -1.8881    0.4690 H         1 <0>         0.1464
     50 H13         9.5944    0.1507    0.6355 H         1 <0>         0.1299
     51 H14         6.2154    2.4608    1.9244 H         1 <0>         0.1396
     52 H15         3.8446    0.9999    1.1454 H         1 <0>         0.0965
     53 H16         4.1245    0.2370    2.7410 H         1 <0>         0.0926
     54 H17         8.8464    3.0096    0.5685 H         1 <0>         0.3939
     55 H18         7.3152   -3.2963   -0.7710 H         1 <0>         0.1297
     56 H19         9.5274   -4.3697   -0.7790 H         1 <0>         0.1337
     57 H20         8.9163   -5.6821    3.2435 H         1 <0>         0.1273
     58 H21         6.7069   -4.6029    3.2661 H         1 <0>         0.1217
     59 H22        11.0061   -5.6477    3.2454 H         1 <0>         0.0628
     60 H23        10.2726   -7.1536    2.6430 H         1 <0>         0.0679
     61 H24        12.6454   -7.5465    3.0981 H         1 <0>         0.0616
     62 H25        12.3745   -7.5981    1.3396 H         1 <0>         0.0888
     63 H26        15.0502   -7.1171    2.0508 H         1 <0>         0.0435
     64 H27        14.3336   -6.8344    0.4453 H         1 <0>         0.0886
     65 H28        16.4791   -5.5843    0.7593 H         1 <0>         0.0993
     66 H29        15.0971   -4.4946    0.4879 H         1 <0>         0.0613
     67 H30        14.9082   -3.6134    4.0281 H         1 <0>         0.0987
     68 H31        14.1589   -3.3177    2.4400 H         1 <0>         0.0610
     69 H32        12.7406   -4.8358    3.7601 H         1 <0>         0.0849
     70 H33        14.1146   -5.9433    3.9975 H         1 <0>         0.0445
@<TRIPOS>BOND
     1    1    6 ar
     2    1    2 ar
     3    1   38 1
     4    2    3 ar
     5    2   39 1
     6    3    4 ar
     7    3   40 1
     8    4    5 ar
     9    4    7 1
    10    5    6 ar
    11    5   41 1
    12    6   42 1
    13    7    8 1
    14    7   43 1
    15    7   44 1
    16    8   14 1
    17    8   21 1
    18    8    9 1
    19    9   10 1
    20    9   45 1
    21    9   46 1
    22   10   11 1
    23   10   47 1
    24   10   48 1
    25   11   12 2
    26   11   13 1
    27   13   14 2
    28   13   23 1
    29   14   15 1
    30   15   20 ar
    31   15   16 ar
    32   16   17 ar
    33   16   49 1
    34   17   18 ar
    35   17   50 1
    36   18   19 ar
    37   18   22 1
    38   19   20 ar
    39   19   51 1
    40   20   21 1
    41   21   52 1
    42   21   53 1
    43   22   54 1
    44   23   28 ar
    45   23   24 ar
    46   24   25 ar
    47   24   55 1
    48   25   26 ar
    49   25   56 1
    50   26   27 ar
    51   26   29 1
    52   27   28 ar
    53   27   57 1
    54   28   58 1
    55   29   30 1
    56   30   31 1
    57   30   59 1
    58   30   60 1
    59   31   32 1
    60   31   61 1
    61   31   62 1
    62   32   37 1
    63   32   33 1
    64   33   34 1
    65   33   63 1
    66   33   64 1
    67   34   35 1
    68   34   65 1
    69   34   66 1
    70   35   36 1
    71   36   37 1
    72   36   67 1
    73   36   68 1
    74   37   69 1
    75   37   70 1
@<TRIPOS>MOLECULE
CHEMBL213838__3
   71    76     0     0     0
SMALL
USER_CHARGES

@<TRIPOS>ATOM
      1 C1         -0.1802    1.3135    0.8480 C.ar      1 <0>        -0.1182
      2 C2          1.0008    2.0237    0.7389 C.ar      1 <0>        -0.1151
      3 C3          2.2048    1.3517    0.6409 C.ar      1 <0>        -0.1170
      4 C4          2.2280   -0.0304    0.6525 C.ar      1 <0>        -0.0826
      5 C5          1.0471   -0.7405    0.7626 C.ar      1 <0>        -0.1167
      6 C6         -0.1570   -0.0686    0.8592 C.ar      1 <0>        -0.1148
      7 C7          3.5406   -0.7629    0.5447 C.3       1 <0>        -0.0612
      8 C8          4.1107   -0.9966    1.9451 C.3       1 <0>        -0.0307
      9 C9          3.1550   -1.8257    2.8048 C.3       1 <0>        -0.1089
     10 C10         2.9867   -3.2059    2.1617 C.3       1 <0>        -0.1673
     11 C11         4.3222   -3.8874    2.0217 C.2       1 <0>         0.3982
     12 O1          4.3832   -5.0999    2.0162 O.2       1 <0>        -0.4521
     13 C12         5.5489   -3.0958    1.8926 C.2       1 <0>        -0.1627
     14 C13         5.4415   -1.7361    1.8907 C.2       1 <0>         0.0348
     15 C14         6.4769   -0.7200    1.8839 C.ar      1 <0>        -0.1051
     16 C15         7.8197   -0.8087    1.4751 C.ar      1 <0>        -0.0638
     17 C16         8.5927    0.3156    1.6166 C.ar      1 <0>        -0.1605
     18 C17         8.0836    1.4956    2.1402 C.ar      1 <0>         0.1345
     19 C18         6.7483    1.6083    2.5365 C.ar      1 <0>        -0.1351
     20 C19         5.9529    0.4928    2.3866 C.ar      1 <0>        -0.0445
     21 C20         4.4787    0.3326    2.6331 C.3       1 <0>        -0.0866
     22 O2          8.9042    2.5687    2.2704 O.3       1 <0>        -0.4994
     23 C21         6.8702   -3.7549    1.7668 C.ar      1 <0>        -0.0410
     24 C22         7.6129   -3.6139    0.5948 C.ar      1 <0>        -0.0691
     25 C23         8.8420   -4.2286    0.4811 C.ar      1 <0>        -0.1415
     26 C24         9.3404   -4.9872    1.5318 C.ar      1 <0>         0.1138
     27 C25         8.6037   -5.1297    2.6999 C.ar      1 <0>        -0.1978
     28 C26         7.3764   -4.5130    2.8225 C.ar      1 <0>        -0.0516
     29 O3         10.5518   -5.5921    1.4163 O.3       1 <0>        -0.3287
     30 C27        11.0041   -6.3573    2.5351 C.3       1 <0>         0.0248
     31 C28        12.3761   -6.9574    2.2214 C.3       1 <0>         0.0001
     32 N1         13.3534   -5.8760    2.0391 N.4       1 <0>        -0.3868
     33 C29        14.6350   -6.4431    1.5973 C.3       1 <0>        -0.0438
     34 C30        15.6515   -5.3144    1.4079 C.3       1 <0>         0.0355
     35 O4         15.7910   -4.5944    2.6359 O.3       1 <0>        -0.3558
     36 C31        14.5635   -4.0425    3.1201 C.3       1 <0>         0.0373
     37 C32        13.5450   -5.1688    3.3128 C.3       1 <0>        -0.0502
     38 H1         -1.1205    1.8385    0.9291 H         1 <0>         0.1232
     39 H2          0.9827    3.1035    0.7298 H         1 <0>         0.1233
     40 H3          3.1274    1.9066    0.5549 H         1 <0>         0.1211
     41 H4          1.0652   -1.8203    0.7713 H         1 <0>         0.1215
     42 H5         -1.0797   -0.6234    0.9448 H         1 <0>         0.1238
     43 H6          3.3818   -1.7223    0.0522 H         1 <0>         0.0804
     44 H7          4.2425   -0.1669   -0.0386 H         1 <0>         0.0808
     45 H8          3.5685   -1.9375    3.8072 H         1 <0>         0.0764
     46 H9          2.1871   -1.3275    2.8597 H         1 <0>         0.0919
     47 H10         2.3339   -3.8169    2.7852 H         1 <0>         0.1032
     48 H11         2.5353   -3.0917    1.1761 H         1 <0>         0.1062
     49 H12         8.2249   -1.7231    1.0675 H         1 <0>         0.1415
     50 H13         9.6282    0.2814    1.3117 H         1 <0>         0.1280
     51 H14         6.3569    2.5291    2.9432 H         1 <0>         0.1432
     52 H15         3.9265    1.1583    2.1844 H         1 <0>         0.1005
     53 H16         4.2763    0.2756    3.7026 H         1 <0>         0.0958
     54 H17         8.9228    3.1460    1.4949 H         1 <0>         0.3974
     55 H18         7.2257   -3.0242   -0.2230 H         1 <0>         0.1374
     56 H19         9.4175   -4.1202   -0.4263 H         1 <0>         0.1362
     57 H20         8.9941   -5.7208    3.5151 H         1 <0>         0.1291
     58 H21         6.8060   -4.6202    3.7333 H         1 <0>         0.1295
     59 H22        11.0814   -5.7114    3.4097 H         1 <0>         0.0864
     60 H23        10.2944   -7.1595    2.7375 H         1 <0>         0.1118
     61 H24        12.6907   -7.5961    3.0468 H         1 <0>         0.1507
     62 H25        12.3138   -7.5486    1.3078 H         1 <0>         0.1450
     63 H26        15.0025   -7.1408    2.3498 H         1 <0>         0.1403
     64 H27        14.4940   -6.9678    0.6524 H         1 <0>         0.1441
     65 H28        16.6149   -5.7364    1.1219 H         1 <0>         0.1433
     66 H29        15.3033   -4.6382    0.6271 H         1 <0>         0.0817
     67 H30        14.7396   -3.5439    4.0733 H         1 <0>         0.1427
     68 H31        14.1781   -3.3228    2.3979 H         1 <0>         0.0817
     69 H32        12.5949   -4.7476    3.6413 H         1 <0>         0.1400
     70 H33        13.9129   -5.8670    4.0646 H         1 <0>         0.1414
     71 H34        13.0138   -5.2293    1.3430 H         1 <0>         0.4300
@<TRIPOS>BOND
     1    1    6 ar
     2    1    2 ar
     3    1   38 1
     4    2    3 ar
     5    2   39 1
     6    3    4 ar
     7    3   40 1
     8    4    5 ar
     9    4    7 1
    10    5    6 ar
    11    5   41 1
    12    6   42 1
    13    7    8 1
    14    7   43 1
    15    7   44 1
    16    8   14 1
    17    8   21 1
    18    8    9 1
    19    9   10 1
    20    9   45 1
    21    9   46 1
    22   10   11 1
    23   10   47 1
    24   10   48 1
    25   11   12 2
    26   11   13 1
    27   13   14 2
    28   13   23 1
    29   14   15 1
    30   15   20 ar
    31   15   16 ar
    32   16   17 ar
    33   16   49 1
    34   17   18 ar
    35   17   50 1
    36   18   19 ar
    37   18   22 1
    38   19   20 ar
    39   19   51 1
    40   20   21 1
    41   21   52 1
    42   21   53 1
    43   22   54 1
    44   23   28 ar
    45   23   24 ar
    46   24   25 ar
    47   24   55 1
    48   25   26 ar
    49   25   56 1
    50   26   27 ar
    51   26   29 1
    52   27   28 ar
    53   27   57 1
    54   28   58 1
    55   29   30 1
    56   30   31 1
    57   30   59 1
    58   30   60 1
    59   31   32 1
    60   31   61 1
    61   31   62 1
    62   32   37 1
    63   32   33 1
    64   32   71 1
    65   33   34 1
    66   33   63 1
    67   33   64 1
    68   34   35 1
    69   34   65 1
    70   34   66 1
    71   35   36 1
    72   36   37 1
    73   36   67 1
    74   36   68 1
    75   37   69 1
    76   37   70 1
@<TRIPOS>MOLECULE
CHEMBL396947
   34    37     0     0     0
SMALL
USER_CHARGES

@<TRIPOS>ATOM
      1 C1         -0.0168    1.3876    0.0097 C.ar      1 <0>        -0.1151
      2 C2          1.1402    2.1059    0.0025 C.ar      1 <0>        -0.0735
      3 C3          2.3773    1.4420   -0.0129 C.ar      1 <0>        -0.0717
      4 C4          2.4094    0.0263   -0.0207 C.ar      1 <0>        -0.0188
      5 C5          3.6477   -0.6360   -0.0370 C.ar      1 <0>        -0.1189
      6 C6          4.8015    0.0872   -0.0450 C.ar      1 <0>        -0.0851
      7 C7          4.7760    1.4793   -0.0374 C.ar      1 <0>        -0.1422
      8 C8          3.5913    2.1595   -0.0211 C.ar      1 <0>         0.1278
      9 O1          3.5829    3.5177   -0.0139 O.3       1 <0>        -0.4902
     10 C9          1.1955   -0.6922   -0.0125 C.ar      1 <0>         0.1171
     11 C10         0.0021   -0.0041    0.0020 C.ar      1 <0>        -0.0752
     12 N1          1.2035   -2.0912   -0.0196 N.am      1 <0>        -0.5302
     13 C11         1.2127   -2.8577    1.0857 C.2       1 <0>         0.5758
     14 O2          1.2158   -2.4504    2.2302 O.2       1 <0>        -0.4467
     15 C12         1.2181   -4.2755    0.6767 C.ar      1 <0>        -0.1504
     16 C13         1.2276   -5.4808    1.3641 C.ar      1 <0>        -0.0220
     17 C14         1.2304   -6.6727    0.6622 C.ar      1 <0>        -0.1220
     18 C15         1.2241   -6.6708   -0.7261 C.ar      1 <0>         0.1394
     19 C16         1.2150   -5.4673   -1.4279 C.ar      1 <0>        -0.0706
     20 C17         1.2113   -4.2704   -0.7343 C.ar      1 <0>        -0.1184
     21 C18         1.1970   -2.8466   -1.1328 C.2       1 <0>         0.5744
     22 O3          1.1842   -2.4293   -2.2732 O.2       1 <0>        -0.4432
     23 O4          1.2274   -7.8471   -1.4029 O.3       1 <0>        -0.4888
     24 H1         -0.9641    1.9060    0.0260 H         1 <0>         0.1380
     25 H2          1.1062    3.1854    0.0082 H         1 <0>         0.1404
     26 H3          3.6847   -1.7154   -0.0428 H         1 <0>         0.1199
     27 H4          5.7511   -0.4270   -0.0572 H         1 <0>         0.1326
     28 H5          5.7057    2.0290   -0.0436 H         1 <0>         0.1356
     29 H6          3.5891    3.9064    0.8716 H         1 <0>         0.3945
     30 H7         -0.9294   -0.5507    0.0083 H         1 <0>         0.1318
     31 H8          1.2332   -5.4883    2.4441 H         1 <0>         0.1502
     32 H9          1.2378   -7.6107    1.1974 H         1 <0>         0.1517
     33 H10         1.2109   -5.4689   -2.5079 H         1 <0>         0.1510
     34 H11         0.3450   -8.1928   -1.5951 H         1 <0>         0.4028
@<TRIPOS>BOND
     1    1   11 ar
     2    1    2 ar
     3    1   24 1
     4    2    3 ar
     5    2   25 1
     6    3    8 ar
     7    3    4 ar
     8    4    5 ar
     9    4   10 ar
    10    5    6 ar
    11    5   26 1
    12    6    7 ar
    13    6   27 1
    14    7    8 ar
    15    7   28 1
    16    8    9 1
    17    9   29 1
    18   10   11 ar
    19   10   12 1
    20   11   30 1
    21   12   21 am
    22   12   13 am
    23   13   14 2
    24   13   15 1
    25   15   20 ar
    26   15   16 ar
    27   16   17 ar
    28   16   31 1
    29   17   18 ar
    30   17   32 1
    31   18   19 ar
    32   18   23 1
    33   19   20 ar
    34   19   33 1
    35   20   21 1
    36   21   22 2
    37   23   34 1
@<TRIPOS>MOLECULE
CHEMBL1087546
   71    76     0     0     0
SMALL
USER_CHARGES

@<TRIPOS>ATOM
      1 C1         -0.0162    1.3768   -0.0658 C.ar      1 <0>        -0.0565
      2 C2          1.1699    2.0849   -0.0735 C.ar      1 <0>        -0.1429
      3 C3          2.3801    1.4093   -0.0131 C.ar      1 <0>         0.1278
      4 C4          2.3958    0.0238    0.0550 C.ar      1 <0>        -0.2018
      5 C5          1.2069   -0.6797    0.0624 C.ar      1 <0>        -0.0642
      6 C6          0.0021   -0.0041    0.0020 C.ar      1 <0>        -0.1395
      7 C7         -1.2934   -0.7740    0.0107 C.3       1 <0>         0.1904
      8 H1         -2.0981   -0.1272   -0.3388 H         1 <0>         0.1328
      9 C8         -1.5932   -1.2245    1.4143 C.2       1 <0>        -0.1062
     10 C9         -1.1385   -2.4249    1.8427 C.2       1 <0>        -0.0428
     11 C10        -1.4582   -2.8864    3.2382 C.3       1 <0>        -0.1209
     12 C11        -0.6373   -2.1049    4.2624 C.3       1 <0>         0.0755
     13 O1         -0.6352   -0.7141    3.9686 O.3       1 <0>        -0.3239
     14 C12        -1.8166   -0.1393    3.6260 C.ar      1 <0>         0.1325
     15 C13        -2.3411   -0.3658    2.3423 C.ar      1 <0>        -0.0822
     16 C14        -3.5507    0.2195    1.9717 C.ar      1 <0>        -0.0747
     17 C15        -4.2285    1.0173    2.8703 C.ar      1 <0>        -0.1484
     18 C16        -3.7101    1.2380    4.1401 C.ar      1 <0>         0.1312
     19 C17        -2.5051    0.6597    4.5173 C.ar      1 <0>        -0.1583
     20 O2         -4.3858    2.0244    5.0181 O.3       1 <0>        -0.4952
     21 C18        -0.3572   -3.2518    0.9135 C.ar      1 <0>        -0.1278
     22 C19         0.4179   -4.3211    1.3553 C.ar      1 <0>        -0.0567
     23 C20         1.1345   -5.0678    0.4428 C.ar      1 <0>        -0.1699
     24 C21         1.0848   -4.7557   -0.9104 C.ar      1 <0>         0.1468
     25 C22         0.3140   -3.6916   -1.3591 C.ar      1 <0>        -0.1744
     26 C23        -0.4095   -2.9378   -0.4565 C.ar      1 <0>         0.1509
     27 O3         -1.1792   -1.8976   -0.8630 O.3       1 <0>        -0.2951
     28 O4          1.7956   -5.4966   -1.8003 O.3       1 <0>        -0.4966
     29 O5          3.5484    2.1036   -0.0209 O.3       1 <0>        -0.3124
     30 C24         4.7560    1.3423    0.0437 C.3       1 <0>         0.0625
     31 C25         5.9575    2.2893    0.0242 C.3       1 <0>        -0.1503
     32 C26         7.2505    1.4742    0.0934 C.3       1 <0>        -0.0063
     33 N1          8.4041    2.3834    0.0746 N.4       1 <0>        -0.3812
     34 C27         8.3921    3.2118    1.2862 C.3       1 <0>        -0.0141
     35 C28         9.5453    4.2162    1.2335 C.3       1 <0>        -0.1458
     36 C29        10.8724    3.4572    1.1453 C.3       1 <0>        -0.1398
     37 C30        10.8445    2.5406   -0.0812 C.3       1 <0>        -0.1463
     38 C31         9.6431    1.5983    0.0203 C.3       1 <0>        -0.0067
     39 H2         -0.9587    1.9025   -0.1084 H         1 <0>         0.1354
     40 H3          1.1551    3.1635   -0.1270 H         1 <0>         0.1353
     41 H4          3.3366   -0.5044    0.1018 H         1 <0>         0.1254
     42 H5          1.2185   -1.7583    0.1154 H         1 <0>         0.1306
     43 H6         -2.5192   -2.7315    3.4340 H         1 <0>         0.0860
     44 H7         -1.2279   -3.9481    3.3274 H         1 <0>         0.0945
     45 H8         -1.0627   -2.2597    5.2540 H         1 <0>         0.0648
     46 H9          0.3886   -2.4731    4.2537 H         1 <0>         0.1012
     47 H10        -3.9554    0.0494    0.9849 H         1 <0>         0.1359
     48 H11        -5.1657    1.4722    2.5854 H         1 <0>         0.1377
     49 H12        -2.1070    0.8349    5.5058 H         1 <0>         0.1388
     50 H13        -5.0155    1.5436    5.5727 H         1 <0>         0.3969
     51 H14         0.4582   -4.5643    2.4068 H         1 <0>         0.1355
     52 H15         1.7366   -5.8979    0.7817 H         1 <0>         0.1364
     53 H16         0.2804   -3.4539   -2.4121 H         1 <0>         0.1419
     54 H17         1.3112   -6.2534   -2.1577 H         1 <0>         0.3994
     55 H18         4.7685    0.7584    0.9640 H         1 <0>         0.0721
     56 H19         4.8085    0.6709   -0.8133 H         1 <0>         0.0727
     57 H20         5.9450    2.8733   -0.8961 H         1 <0>         0.0994
     58 H21         5.9050    2.9607    0.8812 H         1 <0>         0.0992
     59 H22         7.2630    0.8903    1.0137 H         1 <0>         0.1334
     60 H23         7.3030    0.8028   -0.7637 H         1 <0>         0.1354
     61 H24         7.4457    3.7489    1.3492 H         1 <0>         0.1322
     62 H25         8.5060    2.5742    2.1629 H         1 <0>         0.1294
     63 H26         9.4322    4.8546    0.3572 H         1 <0>         0.0880
     64 H27         9.5357    4.8291    2.1348 H         1 <0>         0.1125
     65 H28        11.6933    4.1680    1.0505 H         1 <0>         0.0946
     66 H29        11.0100    2.8578    2.0452 H         1 <0>         0.0818
     67 H30        10.7583    3.1442   -0.9847 H         1 <0>         0.0880
     68 H31        11.7635    1.9558   -0.1196 H         1 <0>         0.1129
     69 H32         9.7304    0.9951    0.9239 H         1 <0>         0.1289
     70 H33         9.6203    0.9442   -0.8513 H         1 <0>         0.1308
     71 H34         8.3486    2.9789   -0.7381 H         1 <0>         0.4236
@<TRIPOS>BOND
     1    1    6 ar
     2    1    2 ar
     3    1   39 1
     4    2    3 ar
     5    2   40 1
     6    3    4 ar
     7    3   29 1
     8    4    5 ar
     9    4   41 1
    10    5    6 ar
    11    5   42 1
    12    6    7 1
    13    7    8 1
    14    7   27 1
    15    7    9 1
    16    9   15 1
    17    9   10 2
    18   10   11 1
    19   10   21 1
    20   11   12 1
    21   11   43 1
    22   11   44 1
    23   12   13 1
    24   12   45 1
    25   12   46 1
    26   13   14 1
    27   14   19 ar
    28   14   15 ar
    29   15   16 ar
    30   16   17 ar
    31   16   47 1
    32   17   18 ar
    33   17   48 1
    34   18   19 ar
    35   18   20 1
    36   19   49 1
    37   20   50 1
    38   21   26 ar
    39   21   22 ar
    40   22   23 ar
    41   22   51 1
    42   23   24 ar
    43   23   52 1
    44   24   25 ar
    45   24   28 1
    46   25   26 ar
    47   25   53 1
    48   26   27 1
    49   28   54 1
    50   29   30 1
    51   30   31 1
    52   30   55 1
    53   30   56 1
    54   31   32 1
    55   31   57 1
    56   31   58 1
    57   32   33 1
    58   32   59 1
    59   32   60 1
    60   33   38 1
    61   33   34 1
    62   33   71 1
    63   34   35 1
    64   34   61 1
    65   34   62 1
    66   35   36 1
    67   35   63 1
    68   35   64 1
    69   36   37 1
    70   36   65 1
    71   36   66 1
    72   37   38 1
    73   37   67 1
    74   37   68 1
    75   38   69 1
    76   38   70 1
@<TRIPOS>MOLECULE
CHEMBL293599
   33    35     0     0     0
SMALL
USER_CHARGES

@<TRIPOS>ATOM
      1 C1         -0.0167    1.3784    0.0096 C.ar      1 <0>        -0.0891
      2 C2          1.1695    2.0865    0.0021 C.ar      1 <0>        -0.1429
      3 C3          2.3802    1.4093   -0.0131 C.ar      1 <0>         0.1093
      4 C4          2.3963    0.0221   -0.0206 C.ar      1 <0>        -0.1437
      5 C5          1.2074   -0.6814   -0.0130 C.ar      1 <0>        -0.0902
      6 C6          0.0021   -0.0041    0.0020 C.ar      1 <0>        -0.1054
      7 C7         -1.2934   -0.7740    0.0107 C.3       1 <0>         0.1982
      8 C8         -1.5770   -1.2981    1.4246 C.3       1 <0>        -0.1276
      9 C9         -2.9274   -2.0139    1.4242 C.3       1 <0>        -0.0727
     10 C10        -2.9840   -3.0332    0.3170 C.ar      1 <0>        -0.1381
     11 C11        -3.9059   -4.0634    0.4022 C.ar      1 <0>        -0.1003
     12 C12        -3.9846   -5.0150   -0.6015 C.ar      1 <0>         0.0499
     13 C13        -3.1389   -4.9388   -1.6985 C.ar      1 <0>        -0.1017
     14 C14        -2.2183   -3.9142   -1.7865 C.ar      1 <0>        -0.1729
     15 C15        -2.1377   -2.9606   -0.7779 C.ar      1 <0>         0.2106
     16 N1         -1.1890   -1.9338   -0.8852 N.pl3     1 <0>        -0.7460
     17 O1         -4.8917   -6.0243   -0.5115 O.3       1 <0>        -0.4993
     18 O2          3.5484    2.1036   -0.0209 O.3       1 <0>        -0.4997
     19 H1         -0.9594    1.9052    0.0259 H         1 <0>         0.1299
     20 H2          1.1543    3.1664    0.0076 H         1 <0>         0.1317
     21 H3          3.3375   -0.5074   -0.0328 H         1 <0>         0.1304
     22 H4          1.2194   -1.7613   -0.0189 H         1 <0>         0.1282
     23 H5         -2.1088   -0.1281   -0.3150 H         1 <0>         0.0771
     24 H6         -0.7936   -1.9963    1.7192 H         1 <0>         0.0731
     25 H7         -1.6065   -0.4630    2.1245 H         1 <0>         0.0800
     26 H8         -3.0693   -2.5148    2.3818 H         1 <0>         0.0790
     27 H9         -3.7224   -1.2822    1.2804 H         1 <0>         0.0745
     28 H10        -4.5660   -4.1253    1.2548 H         1 <0>         0.1266
     29 H11        -3.2010   -5.6794   -2.4822 H         1 <0>         0.1275
     30 H12        -1.5592   -3.8535   -2.6398 H         1 <0>         0.1246
     31 H13        -0.4757   -1.9881   -1.5403 H         1 <0>         0.4024
     32 H14        -5.7487   -5.8195   -0.9098 H         1 <0>         0.3835
     33 H15         3.8951    2.3001    0.8601 H         1 <0>         0.3931
@<TRIPOS>BOND
     1    1    6 ar
     2    1    2 ar
     3    1   19 1
     4    2    3 ar
     5    2   20 1
     6    3    4 ar
     7    3   18 1
     8    4    5 ar
     9    4   21 1
    10    5    6 ar
    11    5   22 1
    12    6    7 1
    13    7   16 1
    14    7    8 1
    15    7   23 1
    16    8    9 1
    17    8   24 1
    18    8   25 1
    19    9   10 1
    20    9   26 1
    21    9   27 1
    22   10   15 ar
    23   10   11 ar
    24   11   12 ar
    25   11   28 1
    26   12   13 ar
    27   12   17 1
    28   13   14 ar
    29   13   29 1
    30   14   15 ar
    31   14   30 1
    32   15   16 1
    33   16   31 1
    34   17   32 1
    35   18   33 1
@<TRIPOS>MOLECULE
CHEMBL293599__1
   33    35     0     0     0
SMALL
USER_CHARGES

@<TRIPOS>ATOM
      1 C1         -0.0167    1.3784    0.0096 C.ar      1 <0>        -0.0891
      2 C2          1.1695    2.0865    0.0021 C.ar      1 <0>        -0.1428
      3 C3          2.3802    1.4093   -0.0131 C.ar      1 <0>         0.1092
      4 C4          2.3963    0.0221   -0.0206 C.ar      1 <0>        -0.1438
      5 C5          1.2074   -0.6814   -0.0130 C.ar      1 <0>        -0.0904
      6 C6          0.0021   -0.0041    0.0020 C.ar      1 <0>        -0.1053
      7 C7         -1.2934   -0.7740    0.0107 C.3       1 <0>         0.1981
      8 C8         -1.6049   -1.2829   -1.4028 C.3       1 <0>        -0.1276
      9 C9         -2.9552   -1.9989   -1.3834 C.3       1 <0>        -0.0729
     10 C10        -2.9899   -3.0300   -0.2863 C.ar      1 <0>        -0.1376
     11 C11        -3.9135   -4.0593   -0.3643 C.ar      1 <0>        -0.1004
     12 C12        -3.9724   -5.0216    0.6305 C.ar      1 <0>         0.0501
     13 C13        -3.1052   -4.9571    1.7113 C.ar      1 <0>        -0.1018
     14 C14        -2.1829   -3.9334    1.7920 C.ar      1 <0>        -0.1730
     15 C15        -2.1221   -2.9690    0.7924 C.ar      1 <0>         0.2104
     16 N1         -1.1714   -1.9433    0.8919 N.pl3     1 <0>        -0.7460
     17 O1         -4.8812   -6.0300    0.5476 O.3       1 <0>        -0.4993
     18 O2          3.5484    2.1036   -0.0209 O.3       1 <0>        -0.4995
     19 H1         -0.9594    1.9052    0.0259 H         1 <0>         0.1301
     20 H2          1.1543    3.1664    0.0076 H         1 <0>         0.1317
     21 H3          3.3375   -0.5074   -0.0328 H         1 <0>         0.1304
     22 H4          1.2194   -1.7613   -0.0189 H         1 <0>         0.1280
     23 H5         -2.1021   -0.1317    0.3594 H         1 <0>         0.0772
     24 H6         -1.6482   -0.4403   -2.0930 H         1 <0>         0.0802
     25 H7         -0.8276   -1.9779   -1.7203 H         1 <0>         0.0731
     26 H8         -3.7471   -1.2688   -1.2161 H         1 <0>         0.0748
     27 H9         -3.1161   -2.4895   -2.3434 H         1 <0>         0.0790
     28 H10        -4.5908   -4.1117   -1.2040 H         1 <0>         0.1268
     29 H11        -3.1518   -5.7060    2.4881 H         1 <0>         0.1274
     30 H12        -1.5075   -3.8814    2.6331 H         1 <0>         0.1245
     31 H13        -0.4449   -2.0049    1.5317 H         1 <0>         0.4019
     32 H14        -4.5579   -6.8136    0.0824 H         1 <0>         0.3835
     33 H15         3.8951    2.3001    0.8601 H         1 <0>         0.3929
@<TRIPOS>BOND
     1    1    6 ar
     2    1    2 ar
     3    1   19 1
     4    2    3 ar
     5    2   20 1
     6    3    4 ar
     7    3   18 1
     8    4    5 ar
     9    4   21 1
    10    5    6 ar
    11    5   22 1
    12    6    7 1
    13    7   16 1
    14    7    8 1
    15    7   23 1
    16    8    9 1
    17    8   24 1
    18    8   25 1
    19    9   10 1
    20    9   26 1
    21    9   27 1
    22   10   15 ar
    23   10   11 ar
    24   11   12 ar
    25   11   28 1
    26   12   13 ar
    27   12   17 1
    28   13   14 ar
    29   13   29 1
    30   14   15 ar
    31   14   30 1
    32   15   16 1
    33   16   31 1
    34   17   32 1
    35   18   33 1
@<TRIPOS>MOLECULE
CHEMBL59146
   67    71     0     0     0
SMALL
USER_CHARGES

@<TRIPOS>ATOM
      1 C1          2.8757    2.9715    1.7618 C.ar      1 <0>        -0.1095
      2 C2          4.1316    2.3945    1.7371 C.ar      1 <0>        -0.1217
      3 C3          4.3135    1.1601    1.1421 C.ar      1 <0>        -0.1088
      4 C4          3.2395    0.5025    0.5722 C.ar      1 <0>        -0.0852
      5 C5          1.9834    1.0792    0.5976 C.ar      1 <0>        -0.0613
      6 C6          1.8018    2.3142    1.1914 C.ar      1 <0>        -0.1200
      7 C7          3.4379   -0.8428   -0.0774 C.3       1 <0>         0.1856
      8 C8          2.7116   -0.8798   -1.4284 C.3       1 <0>        -0.1304
      9 C9          2.9851   -2.2255   -2.0994 C.3       1 <0>        -0.0818
     10 C10         2.6811   -3.3580   -1.1543 C.ar      1 <0>        -0.0971
     11 C11         2.4443   -4.6191   -1.6754 C.ar      1 <0>        -0.1110
     12 C12         2.1643   -5.6820   -0.8318 C.ar      1 <0>         0.0824
     13 C13         2.1206   -5.4863    0.5411 C.ar      1 <0>        -0.1124
     14 C14         2.3556   -4.2309    1.0637 C.ar      1 <0>        -0.1956
     15 C15         2.6346   -3.1639    0.2170 C.ar      1 <0>         0.1632
     16 N1          2.8615   -1.8949    0.7709 N.am      1 <0>        -0.5616
     17 C16         2.5563   -1.6453    2.0597 C.2       1 <0>         0.5678
     18 O1          2.2189   -0.5275    2.3992 O.2       1 <0>        -0.4652
     19 C17         2.6315   -2.7287    3.0590 C.ar      1 <0>        -0.1568
     20 C18         3.7222   -3.6024    3.0643 C.ar      1 <0>        -0.0248
     21 C19         3.7886   -4.6120    3.9983 C.ar      1 <0>        -0.1535
     22 C20         2.7727   -4.7629    4.9349 C.ar      1 <0>         0.1416
     23 C21         1.6860   -3.8963    4.9326 C.ar      1 <0>        -0.2096
     24 C22         1.6151   -2.8803    4.0059 C.ar      1 <0>        -0.0293
     25 O2          2.8419   -5.7592    5.8538 O.3       1 <0>        -0.3245
     26 C23         1.7640   -5.8572    6.7869 C.3       1 <0>         0.0230
     27 C24         2.0162   -7.0303    7.7361 C.3       1 <0>        -0.0006
     28 N2          3.2615   -6.7991    8.4802 N.4       1 <0>        -0.3843
     29 C25         3.6016   -8.0030    9.2481 C.3       1 <0>        -0.0071
     30 C26         4.9397   -7.7967    9.9610 C.3       1 <0>        -0.1467
     31 C27         4.8275   -6.5993   10.9091 C.3       1 <0>        -0.1392
     32 C28         4.4000   -5.3655   10.1090 C.3       1 <0>        -0.1455
     33 C29         3.0818   -5.6619    9.3906 C.3       1 <0>        -0.0129
     34 O3          1.9317   -6.9175   -1.3497 O.3       1 <0>        -0.4973
     35 H1          2.7328    3.9339    2.2306 H         1 <0>         0.1196
     36 H2          4.9708    2.9082    2.1825 H         1 <0>         0.1199
     37 H3          5.2949    0.7095    1.1223 H         1 <0>         0.1153
     38 H4          1.1443    0.5656    0.1520 H         1 <0>         0.1126
     39 H5          0.8205    2.7649    1.2109 H         1 <0>         0.1190
     40 H6          4.5020   -1.0284   -0.2240 H         1 <0>         0.0924
     41 H7          1.6397   -0.7618   -1.2700 H         1 <0>         0.0778
     42 H8          3.0797   -0.0737   -2.0631 H         1 <0>         0.0925
     43 H9          2.3584   -2.3192   -2.9863 H         1 <0>         0.0879
     44 H10         4.0335   -2.2743   -2.3937 H         1 <0>         0.0841
     45 H11         2.4776   -4.7746   -2.7436 H         1 <0>         0.1353
     46 H12         1.9028   -6.3144    1.1992 H         1 <0>         0.1278
     47 H13         2.3222   -4.0768    2.1321 H         1 <0>         0.1687
     48 H14         4.5118   -3.4860    2.3367 H         1 <0>         0.1436
     49 H15         4.6310   -5.2878    4.0029 H         1 <0>         0.1433
     50 H16         0.8983   -4.0173    5.6616 H         1 <0>         0.1372
     51 H17         0.7729   -2.2041    4.0081 H         1 <0>         0.1420
     52 H18         1.6956   -4.9333    7.3612 H         1 <0>         0.0895
     53 H19         0.8306   -6.0200    6.2480 H         1 <0>         0.1128
     54 H20         1.1852   -7.1163    8.4362 H         1 <0>         0.1502
     55 H21         2.1029   -7.9516    7.1601 H         1 <0>         0.1431
     56 H22         2.8228   -8.1945    9.9863 H         1 <0>         0.1294
     57 H23         3.6779   -8.8549    8.5724 H         1 <0>         0.1312
     58 H24         5.1896   -8.6909   10.5321 H         1 <0>         0.1132
     59 H25         5.7193   -7.6053    9.2237 H         1 <0>         0.0880
     60 H26         4.0839   -6.8112   11.6774 H         1 <0>         0.0822
     61 H27         5.7941   -6.4132   11.3772 H         1 <0>         0.0948
     62 H28         4.2640   -4.5220   10.7858 H         1 <0>         0.1125
     63 H29         5.1684   -5.1237    9.3747 H         1 <0>         0.0879
     64 H30         2.7744   -4.7854    8.8201 H         1 <0>         0.1271
     65 H31         2.3142   -5.9033   10.1258 H         1 <0>         0.1305
     66 H32         2.7267   -7.4596   -1.4461 H         1 <0>         0.3896
     67 H33         4.0068   -6.5948    7.8314 H         1 <0>         0.4294
@<TRIPOS>BOND
     1    1    6 ar
     2    1    2 ar
     3    1   35 1
     4    2    3 ar
     5    2   36 1
     6    3    4 ar
     7    3   37 1
     8    4    5 ar
     9    4    7 1
    10    5    6 ar
    11    5   38 1
    12    6   39 1
    13    7   16 1
    14    7    8 1
    15    7   40 1
    16    8    9 1
    17    8   41 1
    18    8   42 1
    19    9   10 1
    20    9   43 1
    21    9   44 1
    22   10   15 ar
    23   10   11 ar
    24   11   12 ar
    25   11   45 1
    26   12   13 ar
    27   12   34 1
    28   13   14 ar
    29   13   46 1
    30   14   15 ar
    31   14   47 1
    32   15   16 1
    33   16   17 am
    34   17   18 2
    35   17   19 1
    36   19   24 ar
    37   19   20 ar
    38   20   21 ar
    39   20   48 1
    40   21   22 ar
    41   21   49 1
    42   22   23 ar
    43   22   25 1
    44   23   24 ar
    45   23   50 1
    46   24   51 1
    47   25   26 1
    48   26   27 1
    49   26   52 1
    50   26   53 1
    51   27   28 1
    52   27   54 1
    53   27   55 1
    54   28   33 1
    55   28   29 1
    56   28   67 1
    57   29   30 1
    58   29   56 1
    59   29   57 1
    60   30   31 1
    61   30   58 1
    62   30   59 1
    63   31   32 1
    64   31   60 1
    65   31   61 1
    66   32   33 1
    67   32   62 1
    68   32   63 1
    69   33   64 1
    70   33   65 1
    71   34   66 1
@<TRIPOS>MOLECULE
CHEMBL59146__1
   67    71     0     0     0
SMALL
USER_CHARGES

@<TRIPOS>ATOM
      1 C1         -0.2359   -0.0257    1.7379 C.ar      1 <0>        -0.1151
      2 C2          0.2834    1.0695    1.0733 C.ar      1 <0>        -0.1125
      3 C3          1.4726    0.9559    0.3778 C.ar      1 <0>        -0.0991
      4 C4          2.1428   -0.2527    0.3474 C.ar      1 <0>        -0.0694
      5 C5          1.6240   -1.3477    1.0128 C.ar      1 <0>        -0.1002
      6 C6          0.4340   -1.2345    1.7071 C.ar      1 <0>        -0.1147
      7 C7          3.4388   -0.3768   -0.4116 C.3       1 <0>         0.1834
      8 C8          4.5746   -0.7372    0.5549 C.3       1 <0>        -0.1264
      9 C9          5.8886   -0.7880   -0.2242 C.3       1 <0>        -0.0831
     10 C10         5.7489   -1.6690   -1.4377 C.ar      1 <0>        -0.0932
     11 C11         6.8915   -2.1912   -2.0205 C.ar      1 <0>        -0.1135
     12 C12         6.7962   -3.0030   -3.1393 C.ar      1 <0>         0.0886
     13 C13         5.5530   -3.2951   -3.6816 C.ar      1 <0>        -0.1171
     14 C14         4.4124   -2.7768   -3.1031 C.ar      1 <0>        -0.1637
     15 C15         4.5078   -1.9646   -1.9788 C.ar      1 <0>         0.1514
     16 N1          3.3336   -1.4563   -1.4028 N.am      1 <0>        -0.5522
     17 C16         2.1295   -1.9503   -1.7527 C.2       1 <0>         0.5600
     18 O1          1.1180   -1.3269   -1.4938 O.2       1 <0>        -0.4740
     19 C17         2.0385   -3.2478   -2.4499 C.ar      1 <0>        -0.1708
     20 C18         2.9646   -4.2574   -2.1747 C.ar      1 <0>        -0.0130
     21 C19         2.8763   -5.4667   -2.8275 C.ar      1 <0>        -0.1600
     22 C20         1.8677   -5.6837   -3.7591 C.ar      1 <0>         0.1471
     23 C21         0.9449   -4.6818   -4.0359 C.ar      1 <0>        -0.2180
     24 C22         1.0226   -3.4720   -3.3829 C.ar      1 <0>        -0.0199
     25 O2          1.7841   -6.8768   -4.4003 O.3       1 <0>        -0.3241
     26 C23         0.7234   -7.0326   -5.3452 C.3       1 <0>         0.0230
     27 C24         0.7906   -8.4314   -5.9613 C.3       1 <0>        -0.0009
     28 N2          0.5735   -9.4387   -4.9143 N.4       1 <0>        -0.3843
     29 C25         0.7950  -10.7780   -5.4724 C.3       1 <0>        -0.0072
     30 C26         0.6495  -11.8259   -4.3669 C.3       1 <0>        -0.1466
     31 C27        -0.7610  -11.7442   -3.7761 C.3       1 <0>        -0.1392
     32 C28        -1.0078  -10.3222   -3.2641 C.3       1 <0>        -0.1455
     33 C29        -0.8009   -9.3301   -4.4105 C.3       1 <0>        -0.0135
     34 O3          7.9218   -3.5134   -3.7063 O.3       1 <0>        -0.4957
     35 H1         -1.1628    0.0642    2.2850 H         1 <0>         0.1207
     36 H2         -0.2402    2.0138    1.0970 H         1 <0>         0.1227
     37 H3          1.8780    1.8114   -0.1421 H         1 <0>         0.1196
     38 H4          2.1474   -2.2920    0.9887 H         1 <0>         0.1072
     39 H5          0.0284   -2.0900    2.2266 H         1 <0>         0.1177
     40 H6          3.6643    0.5643   -0.9132 H         1 <0>         0.0927
     41 H7          4.6427    0.0193    1.3367 H         1 <0>         0.0939
     42 H8          4.3777   -1.7112    1.0028 H         1 <0>         0.0759
     43 H9          6.1586    0.2196   -0.5404 H         1 <0>         0.0860
     44 H10         6.6735   -1.1847    0.4198 H         1 <0>         0.0891
     45 H11         7.8607   -1.9650   -1.6011 H         1 <0>         0.1365
     46 H12         5.4782   -3.9264   -4.5547 H         1 <0>         0.1307
     47 H13         3.4439   -3.0030   -3.5242 H         1 <0>         0.1535
     48 H14         3.7487   -4.0895   -1.4513 H         1 <0>         0.1431
     49 H15         3.5918   -6.2474   -2.6157 H         1 <0>         0.1406
     50 H16         0.1632   -4.8541   -4.7609 H         1 <0>         0.1356
     51 H17         0.3021   -2.6959   -3.5948 H         1 <0>         0.1423
     52 H18        -0.2343   -6.9033   -4.8410 H         1 <0>         0.0892
     53 H19         0.8242   -6.2841   -6.1311 H         1 <0>         0.1126
     54 H20         0.0193   -8.5294   -6.7253 H         1 <0>         0.1501
     55 H21         1.7709   -8.5826   -6.4133 H         1 <0>         0.1434
     56 H22         0.0607  -10.9713   -6.2545 H         1 <0>         0.1295
     57 H23         1.7981  -10.8336   -5.8954 H         1 <0>         0.1313
     58 H24         0.8126  -12.8198   -4.7837 H         1 <0>         0.1133
     59 H25         1.3836  -11.6337   -3.5844 H         1 <0>         0.0879
     60 H26        -1.4933  -11.9865   -4.5462 H         1 <0>         0.0823
     61 H27        -0.8517  -12.4499   -2.9503 H         1 <0>         0.0948
     62 H28        -2.0293  -10.2413   -2.8926 H         1 <0>         0.1125
     63 H29        -0.3081  -10.0988   -2.4586 H         1 <0>         0.0878
     64 H30        -0.9760   -8.3166   -4.0494 H         1 <0>         0.1274
     65 H31        -1.5011   -9.5542   -5.2152 H         1 <0>         0.1307
     66 H32         8.1874   -4.3720   -3.3493 H         1 <0>         0.3896
     67 H33         1.2216   -9.2805   -4.1573 H         1 <0>         0.4291
@<TRIPOS>BOND
     1    1    6 ar
     2    1    2 ar
     3    1   35 1
     4    2    3 ar
     5    2   36 1
     6    3    4 ar
     7    3   37 1
     8    4    5 ar
     9    4    7 1
    10    5    6 ar
    11    5   38 1
    12    6   39 1
    13    7   16 1
    14    7    8 1
    15    7   40 1
    16    8    9 1
    17    8   41 1
    18    8   42 1
    19    9   10 1
    20    9   43 1
    21    9   44 1
    22   10   15 ar
    23   10   11 ar
    24   11   12 ar
    25   11   45 1
    26   12   13 ar
    27   12   34 1
    28   13   14 ar
    29   13   46 1
    30   14   15 ar
    31   14   47 1
    32   15   16 1
    33   16   17 am
    34   17   18 2
    35   17   19 1
    36   19   24 ar
    37   19   20 ar
    38   20   21 ar
    39   20   48 1
    40   21   22 ar
    41   21   49 1
    42   22   23 ar
    43   22   25 1
    44   23   24 ar
    45   23   50 1
    46   24   51 1
    47   25   26 1
    48   26   27 1
    49   26   52 1
    50   26   53 1
    51   27   28 1
    52   27   54 1
    53   27   55 1
    54   28   33 1
    55   28   29 1
    56   28   67 1
    57   29   30 1
    58   29   56 1
    59   29   57 1
    60   30   31 1
    61   30   58 1
    62   30   59 1
    63   31   32 1
    64   31   60 1
    65   31   61 1
    66   32   33 1
    67   32   62 1
    68   32   63 1
    69   33   64 1
    70   33   65 1
    71   34   66 1
@<TRIPOS>MOLECULE
CHEMBL361056
   67    72     0     0     0
SMALL
USER_CHARGES

@<TRIPOS>ATOM
      1 C1          0.2141   -0.0973   -0.9168 C.ar      1 <0>        -0.0873
      2 C2          1.3361    0.6973   -1.0512 C.ar      1 <0>        -0.1389
      3 C3          1.3229    2.0002   -0.5750 C.ar      1 <0>         0.1157
      4 C4          0.1824    2.5018    0.0352 C.ar      1 <0>        -0.1461
      5 C5         -0.9370    1.7032    0.1671 C.ar      1 <0>        -0.0837
      6 C6         -0.9214    0.4049   -0.3083 C.ar      1 <0>        -0.0897
      7 C7         -2.1441   -0.4640   -0.1634 C.3       1 <0>        -0.0641
      8 H1         -3.0128    0.1524    0.0679 H         1 <0>         0.1382
      9 C8         -1.9231   -1.4991    0.9523 C.3       1 <0>         0.1497
     10 H2         -2.7563   -2.2017    0.9680 H         1 <0>         0.0962
     11 O1         -0.7151   -2.2009    0.7008 O.3       1 <0>        -0.3049
     12 C9         -0.5207   -2.9096   -0.4360 C.ar      1 <0>         0.1212
     13 C10         0.4181   -3.9381   -0.4020 C.ar      1 <0>        -0.1140
     14 C11         0.6781   -4.6905   -1.5287 C.ar      1 <0>        -0.1061
     15 C12         0.0053   -4.4298   -2.7135 C.ar      1 <0>         0.0985
     16 C13        -0.9351   -3.4133   -2.7577 C.ar      1 <0>        -0.0901
     17 C14        -1.2023   -2.6603   -1.6220 C.ar      1 <0>        -0.1478
     18 S1         -2.4328   -1.3918   -1.7029 S.3       1 <0>        -0.0841
     19 O2          0.2676   -5.1674   -3.8253 O.3       1 <0>        -0.4915
     20 C15        -1.8319   -0.7955    2.2818 C.ar      1 <0>        -0.1046
     21 C16        -0.6515   -0.1816    2.6582 C.ar      1 <0>        -0.0346
     22 C17        -0.5652    0.4637    3.8766 C.ar      1 <0>        -0.1416
     23 C18        -1.6642    0.4957    4.7226 C.ar      1 <0>         0.1245
     24 C19        -2.8476   -0.1206    4.3424 C.ar      1 <0>        -0.2036
     25 C20        -2.9304   -0.7601    3.1207 C.ar      1 <0>        -0.0588
     26 O3         -1.5817    1.1295    5.9220 O.3       1 <0>        -0.3265
     27 C21        -2.7524    1.1225    6.7414 C.3       1 <0>         0.0260
     28 C22        -2.4698    1.8785    8.0411 C.3       1 <0>        -0.0071
     29 N1         -2.1866    3.2874    7.7364 N.4       1 <0>        -0.3750
     30 C23        -1.7518    3.9663    8.9597 C.3       1 <0>        -0.0062
     31 C24        -2.6958    5.1241    9.2898 C.3       1 <0>        -0.1036
     32 C25        -4.1136    4.5752    9.4827 C.3       1 <0>        -0.1312
     33 C26        -4.5307    3.8335    8.2086 C.3       1 <0>        -0.1402
     34 C27        -3.3927    3.9130    7.1890 C.3       1 <0>         0.0239
     35 C28        -3.1120    5.3778    6.8477 C.3       1 <0>        -0.1379
     36 C29        -2.6966    6.1180    8.1232 C.3       1 <0>        -0.1328
     37 O4          2.4256    2.7838   -0.7056 O.3       1 <0>        -0.4999
     38 H3          0.2223   -1.1103   -1.2913 H         1 <0>         0.1322
     39 H4          2.2228    0.3044   -1.5262 H         1 <0>         0.1315
     40 H5          0.1698    3.5157    0.4070 H         1 <0>         0.1293
     41 H6         -1.8251    2.0932    0.6420 H         1 <0>         0.1234
     42 H7          0.9478   -4.1484    0.5154 H         1 <0>         0.1413
     43 H8          1.4084   -5.4852   -1.4883 H         1 <0>         0.1429
     44 H9         -1.4613   -3.2059   -3.6778 H         1 <0>         0.1405
     45 H10        -0.2871   -5.9544   -3.9151 H         1 <0>         0.3946
     46 H11         0.2038   -0.2069    1.9992 H         1 <0>         0.1388
     47 H12         0.3572    0.9424    4.1705 H         1 <0>         0.1352
     48 H13        -3.7045   -0.0970    4.9993 H         1 <0>         0.1312
     49 H14        -3.8527   -1.2363    2.8224 H         1 <0>         0.1347
     50 H15        -3.5710    1.6074    6.2096 H         1 <0>         0.0862
     51 H16        -3.0282    0.0935    6.9722 H         1 <0>         0.1095
     52 H17        -3.3400    1.8159    8.6945 H         1 <0>         0.1509
     53 H18        -1.6083    1.4344    8.5398 H         1 <0>         0.1435
     54 H19        -1.7506    3.2552    9.7858 H         1 <0>         0.1305
     55 H20        -0.7425    4.3528    8.8185 H         1 <0>         0.1313
     56 H21        -2.3589    5.6246   10.1976 H         1 <0>         0.1208
     57 H22        -4.1273    3.8868   10.3276 H         1 <0>         0.0830
     58 H23        -4.8026    5.3992    9.6682 H         1 <0>         0.0935
     59 H24        -4.7359    2.7894    8.4452 H         1 <0>         0.0871
     60 H25        -5.4254    4.2971    7.7932 H         1 <0>         0.1111
     61 H26        -3.6877    3.3912    6.2786 H         1 <0>         0.1336
     62 H27        -2.3068    5.4337    6.1151 H         1 <0>         0.0883
     63 H28        -4.0122    5.8355    6.4374 H         1 <0>         0.1106
     64 H29        -3.4050    6.9208    8.3273 H         1 <0>         0.0927
     65 H30        -1.6968    6.5331    7.9958 H         1 <0>         0.0840
     66 H31         2.4506    3.2939   -1.5268 H         1 <0>         0.3954
     67 H32        -1.4478    3.3360    7.0509 H         1 <0>         0.4303
@<TRIPOS>BOND
     1    1    6 ar
     2    1    2 ar
     3    1   38 1
     4    2    3 ar
     5    2   39 1
     6    3    4 ar
     7    3   37 1
     8    4    5 ar
     9    4   40 1
    10    5    6 ar
    11    5   41 1
    12    6    7 1
    13    7    8 1
    14    7   18 1
    15    7    9 1
    16    9   10 1
    17    9   11 1
    18    9   20 1
    19   11   12 1
    20   12   17 ar
    21   12   13 ar
    22   13   14 ar
    23   13   42 1
    24   14   15 ar
    25   14   43 1
    26   15   16 ar
    27   15   19 1
    28   16   17 ar
    29   16   44 1
    30   17   18 1
    31   19   45 1
    32   20   25 ar
    33   20   21 ar
    34   21   22 ar
    35   21   46 1
    36   22   23 ar
    37   22   47 1
    38   23   24 ar
    39   23   26 1
    40   24   25 ar
    41   24   48 1
    42   25   49 1
    43   26   27 1
    44   27   28 1
    45   27   50 1
    46   27   51 1
    47   28   29 1
    48   28   52 1
    49   28   53 1
    50   29   34 1
    51   29   30 1
    52   29   67 1
    53   30   31 1
    54   30   54 1
    55   30   55 1
    56   31   36 1
    57   31   32 1
    58   31   56 1
    59   32   33 1
    60   32   57 1
    61   32   58 1
    62   33   34 1
    63   33   59 1
    64   33   60 1
    65   34   35 1
    66   34   61 1
    67   35   36 1
    68   35   62 1
    69   35   63 1
    70   36   64 1
    71   36   65 1
    72   37   66 1
@<TRIPOS>MOLECULE
CHEMBL1083186
   61    65     0     0     0
SMALL
USER_CHARGES

@<TRIPOS>ATOM
      1 C1          0.8471   -0.3351   -0.9564 C.3       1 <0>        -0.0539
      2 N1          0.0159    0.0035    0.2066 N.4       1 <0>        -0.3891
      3 C2         -0.0366    1.4632    0.3626 C.3       1 <0>        -0.0475
      4 C3         -1.3431   -0.5167    0.0053 C.3       1 <0>        -0.0015
      5 C4         -1.3081   -2.0463   -0.0003 C.3       1 <0>         0.0239
      6 O1         -0.8996   -2.5181    1.2852 O.3       1 <0>        -0.3281
      7 C5         -0.8162   -3.8645    1.4504 C.ar      1 <0>         0.1190
      8 C6         -1.1157   -4.7138    0.3952 C.ar      1 <0>        -0.2001
      9 C7         -1.0297   -6.0820    0.5655 C.ar      1 <0>        -0.0574
     10 C8         -0.6460   -6.6051    1.7865 C.ar      1 <0>        -0.1299
     11 C9         -0.3474   -5.7607    2.8399 C.ar      1 <0>        -0.0637
     12 C10        -0.4259   -4.3917    2.6728 C.ar      1 <0>        -0.1364
     13 C11        -0.5535   -8.0981    1.9696 C.3       1 <0>         0.1900
     14 H1         -0.5262   -8.5791    0.9919 H         1 <0>         0.1323
     15 C12        -1.7608   -8.5807    2.7262 C.2       1 <0>        -0.1128
     16 C13        -1.7234   -8.6396    4.0777 C.2       1 <0>        -0.0364
     17 C14        -2.9218   -9.1446    4.8336 C.3       1 <0>        -0.1223
     18 C15        -4.0425   -8.1067    4.8166 C.3       1 <0>         0.0751
     19 O2         -4.2157   -7.5561    3.5176 O.3       1 <0>        -0.3242
     20 C16        -4.2147   -8.4119    2.4636 C.ar      1 <0>         0.1324
     21 C17        -2.9956   -8.9549    2.0240 C.ar      1 <0>        -0.0821
     22 C18        -2.9749   -9.8320    0.9408 C.ar      1 <0>        -0.0756
     23 C19        -4.1544  -10.1648    0.3072 C.ar      1 <0>        -0.1491
     24 C20        -5.3593   -9.6294    0.7448 C.ar      1 <0>         0.1313
     25 C21        -5.3889   -8.7539    1.8224 C.ar      1 <0>        -0.1585
     26 O3         -6.5155   -9.9643    0.1147 O.3       1 <0>        -0.4957
     27 C22        -0.4939   -8.2223    4.7646 C.ar      1 <0>        -0.1307
     28 C23        -0.4748   -7.9354    6.1272 C.ar      1 <0>        -0.0545
     29 C24         0.7057   -7.5467    6.7266 C.ar      1 <0>        -0.1677
     30 C25         1.8704   -7.4409    5.9760 C.ar      1 <0>         0.1495
     31 C26         1.8599   -7.7257    4.6171 C.ar      1 <0>        -0.1741
     32 C27         0.6857   -8.1177    4.0057 C.ar      1 <0>         0.1477
     33 O4          0.6434   -8.4118    2.6823 O.3       1 <0>        -0.2950
     34 O5          3.0271   -7.0559    6.5758 O.3       1 <0>        -0.4956
     35 H2          1.8554    0.0509   -0.8070 H         1 <0>         0.1274
     36 H3          0.8860   -1.4182   -1.0721 H         1 <0>         0.1213
     37 H4          0.4164    0.1109   -1.8529 H         1 <0>         0.1247
     38 H5         -0.7197    1.7177    1.1730 H         1 <0>         0.1246
     39 H6          0.9595    1.8399    0.5953 H         1 <0>         0.1259
     40 H7         -0.3886    1.9153   -0.5646 H         1 <0>         0.1232
     41 H8         -1.9878   -0.1710    0.8134 H         1 <0>         0.1426
     42 H9         -1.7317   -0.1586   -0.9480 H         1 <0>         0.1496
     43 H10        -2.3015   -2.4316   -0.2299 H         1 <0>         0.1092
     44 H11        -0.6013   -2.3907   -0.7552 H         1 <0>         0.0870
     45 H12        -1.4162   -4.3057   -0.5586 H         1 <0>         0.1297
     46 H13        -1.2628   -6.7436   -0.2557 H         1 <0>         0.1326
     47 H14        -0.0482   -6.1718    3.7927 H         1 <0>         0.1376
     48 H15        -0.1882   -3.7324    3.4946 H         1 <0>         0.1337
     49 H16        -3.2771  -10.0652    4.3709 H         1 <0>         0.0863
     50 H17        -2.6362   -9.3485    5.8656 H         1 <0>         0.0958
     51 H18        -4.9727   -8.5806    5.1304 H         1 <0>         0.0658
     52 H19        -3.7980   -7.3057    5.5142 H         1 <0>         0.1032
     53 H20        -2.0392  -10.2492    0.5988 H         1 <0>         0.1354
     54 H21        -4.1409  -10.8438   -0.5325 H         1 <0>         0.1375
     55 H22        -6.3287   -8.3409    2.1581 H         1 <0>         0.1392
     56 H23        -6.9531  -10.7436    0.4838 H         1 <0>         0.3977
     57 H24        -1.3793   -8.0163    6.7117 H         1 <0>         0.1367
     58 H25         0.7245   -7.3235    7.7831 H         1 <0>         0.1381
     59 H26         2.7685   -7.6408    4.0394 H         1 <0>         0.1421
     60 H27         3.5520   -7.7890    6.9253 H         1 <0>         0.4000
     61 H28         0.4146   -0.4093    1.0365 H         1 <0>         0.4341
@<TRIPOS>BOND
     1    1    2 1
     2    1   35 1
     3    1   36 1
     4    1   37 1
     5    2    3 1
     6    2    4 1
     7    2   61 1
     8    3   38 1
     9    3   39 1
    10    3   40 1
    11    4    5 1
    12    4   41 1
    13    4   42 1
    14    5    6 1
    15    5   43 1
    16    5   44 1
    17    6    7 1
    18    7   12 ar
    19    7    8 ar
    20    8    9 ar
    21    8   45 1
    22    9   10 ar
    23    9   46 1
    24   10   11 ar
    25   10   13 1
    26   11   12 ar
    27   11   47 1
    28   12   48 1
    29   13   14 1
    30   13   33 1
    31   13   15 1
    32   15   21 1
    33   15   16 2
    34   16   17 1
    35   16   27 1
    36   17   18 1
    37   17   49 1
    38   17   50 1
    39   18   19 1
    40   18   51 1
    41   18   52 1
    42   19   20 1
    43   20   25 ar
    44   20   21 ar
    45   21   22 ar
    46   22   23 ar
    47   22   53 1
    48   23   24 ar
    49   23   54 1
    50   24   25 ar
    51   24   26 1
    52   25   55 1
    53   26   56 1
    54   27   32 ar
    55   27   28 ar
    56   28   29 ar
    57   28   57 1
    58   29   30 ar
    59   29   58 1
    60   30   31 ar
    61   30   34 1
    62   31   32 ar
    63   31   59 1
    64   32   33 1
    65   34   60 1
@<TRIPOS>MOLECULE
CHEMBL1087040
   68    73     0     0     0
SMALL
USER_CHARGES

@<TRIPOS>ATOM
      1 C1          1.0768   -0.8673   -0.1962 C.ar      1 <0>        -0.0745
      2 C2          2.2512   -0.1496   -0.3303 C.ar      1 <0>        -0.1207
      3 C3          2.2214    1.2324   -0.3467 C.ar      1 <0>        -0.0697
      4 C4          1.0176    1.9001   -0.2286 C.ar      1 <0>        -0.1294
      5 C5         -0.1618    1.1824   -0.0940 C.ar      1 <0>         0.1173
      6 C6         -0.1293   -0.2046   -0.0782 C.ar      1 <0>        -0.1969
      7 O1         -1.3472    1.8368    0.0223 O.3       1 <0>        -0.3257
      8 C7         -2.5212    1.0334    0.1575 C.3       1 <0>         0.0253
      9 C8         -3.7485    1.9394    0.2747 C.3       1 <0>        -0.0009
     10 N1         -3.9215    2.6936   -0.9739 N.4       1 <0>        -0.3845
     11 C9         -4.9975    3.6774   -0.8045 C.3       1 <0>        -0.0068
     12 C10        -5.1276    4.5206   -2.0749 C.3       1 <0>        -0.1469
     13 C11        -5.4531    3.6043   -3.2580 C.3       1 <0>        -0.1379
     14 C12        -4.3621    2.5365   -3.3793 C.3       1 <0>        -0.1457
     15 C13        -4.2604    1.7669   -2.0606 C.3       1 <0>        -0.0130
     16 C14         3.5031    2.0114   -0.4929 C.3       1 <0>         0.1865
     17 H1          4.2846    1.3505   -0.8679 H         1 <0>         0.1377
     18 C15         3.9120    2.5506    0.8506 C.2       1 <0>        -0.1048
     19 C16         3.4787    3.7717    1.2410 C.2       1 <0>        -0.0421
     20 C17         3.9064    4.3216    2.5741 C.3       1 <0>        -0.1215
     21 C18         3.1830    3.5989    3.7090 C.3       1 <0>         0.0755
     22 O2          3.1747    2.1925    3.5022 O.3       1 <0>        -0.3238
     23 C19         4.3310    1.6067    3.0984 C.ar      1 <0>         0.1332
     24 C20         4.7449    1.7571    1.7641 C.ar      1 <0>        -0.0863
     25 C21         5.9272    1.1593    1.3307 C.ar      1 <0>        -0.0738
     26 C22         6.6871    0.4242    2.2171 C.ar      1 <0>        -0.1483
     27 C23         6.2780    0.2788    3.5367 C.ar      1 <0>         0.1341
     28 C24         5.1010    0.8700    3.9767 C.ar      1 <0>        -0.1581
     29 O3          7.0340   -0.4462    4.4021 O.3       1 <0>        -0.4947
     30 C25         2.6128    4.5332    0.3310 C.ar      1 <0>        -0.1237
     31 C26         1.8631    5.6218    0.7693 C.ar      1 <0>        -0.0556
     32 C27         1.0641    6.3048   -0.1244 C.ar      1 <0>        -0.1693
     33 C28         1.0060    5.9096   -1.4554 C.ar      1 <0>         0.1432
     34 C29         1.7508    4.8257   -1.9006 C.ar      1 <0>        -0.1738
     35 C30         2.5559    4.1351   -1.0168 C.ar      1 <0>         0.1505
     36 O4          3.3028    3.0776   -1.4214 O.3       1 <0>        -0.2936
     37 O5          0.2147    6.5882   -2.3269 O.3       1 <0>        -0.5000
     38 H2          1.1023   -1.9470   -0.1882 H         1 <0>         0.1346
     39 H3          3.1933   -0.6696   -0.4220 H         1 <0>         0.1327
     40 H4          0.9949    2.9797   -0.2408 H         1 <0>         0.1374
     41 H5         -1.0462   -0.7656    0.0261 H         1 <0>         0.1283
     42 H6         -2.6254    0.3920   -0.7177 H         1 <0>         0.0859
     43 H7         -2.4383    0.4165    1.0523 H         1 <0>         0.1091
     44 H8         -4.6339    1.3302    0.4568 H         1 <0>         0.1491
     45 H9         -3.6093    2.6345    1.1027 H         1 <0>         0.1422
     46 H10        -5.9373    3.1585   -0.6156 H         1 <0>         0.1288
     47 H11        -4.7660    4.3267    0.0398 H         1 <0>         0.1304
     48 H12        -5.9282    5.2492   -1.9478 H         1 <0>         0.1127
     49 H13        -4.1884    5.0402   -2.2646 H         1 <0>         0.0894
     50 H14        -6.4171    3.1233   -3.0920 H         1 <0>         0.0815
     51 H15        -5.4910    4.1925   -4.1749 H         1 <0>         0.0946
     52 H16        -4.6156    1.8470   -4.1845 H         1 <0>         0.1120
     53 H17        -3.4070    3.0150   -3.5960 H         1 <0>         0.0885
     54 H18        -3.4847    1.0057   -2.1436 H         1 <0>         0.1267
     55 H19        -5.2159    1.2887   -1.8449 H         1 <0>         0.1301
     56 H20         4.9819    4.1874    2.6902 H         1 <0>         0.0872
     57 H21         3.6706    5.3849    2.6169 H         1 <0>         0.0946
     58 H22         3.6867    3.8183    4.6504 H         1 <0>         0.0659
     59 H23         2.1553    3.9579    3.7631 H         1 <0>         0.1010
     60 H24         6.2469    1.2708    0.3052 H         1 <0>         0.1359
     61 H25         7.6033   -0.0403    1.8836 H         1 <0>         0.1386
     62 H26         4.7881    0.7535    5.0038 H         1 <0>         0.1399
     63 H27         7.7010    0.0729    4.8718 H         1 <0>         0.3978
     64 H28         1.9066    5.9296    1.8036 H         1 <0>         0.1362
     65 H29         0.4813    7.1497    0.2118 H         1 <0>         0.1357
     66 H30         1.7004    4.5233   -2.9362 H         1 <0>         0.1410
     67 H31         0.6582    7.3251   -2.7690 H         1 <0>         0.4008
     68 H32        -3.0624    3.1731   -1.1978 H         1 <0>         0.4302
@<TRIPOS>BOND
     1    1    6 ar
     2    1    2 ar
     3    1   38 1
     4    2    3 ar
     5    2   39 1
     6    3    4 ar
     7    3   16 1
     8    4    5 ar
     9    4   40 1
    10    5    6 ar
    11    5    7 1
    12    6   41 1
    13    7    8 1
    14    8    9 1
    15    8   42 1
    16    8   43 1
    17    9   10 1
    18    9   44 1
    19    9   45 1
    20   10   15 1
    21   10   11 1
    22   10   68 1
    23   11   12 1
    24   11   46 1
    25   11   47 1
    26   12   13 1
    27   12   48 1
    28   12   49 1
    29   13   14 1
    30   13   50 1
    31   13   51 1
    32   14   15 1
    33   14   52 1
    34   14   53 1
    35   15   54 1
    36   15   55 1
    37   16   17 1
    38   16   36 1
    39   16   18 1
    40   18   24 1
    41   18   19 2
    42   19   20 1
    43   19   30 1
    44   20   21 1
    45   20   56 1
    46   20   57 1
    47   21   22 1
    48   21   58 1
    49   21   59 1
    50   22   23 1
    51   23   28 ar
    52   23   24 ar
    53   24   25 ar
    54   25   26 ar
    55   25   60 1
    56   26   27 ar
    57   26   61 1
    58   27   28 ar
    59   27   29 1
    60   28   62 1
    61   29   63 1
    62   30   35 ar
    63   30   31 ar
    64   31   32 ar
    65   31   64 1
    66   32   33 ar
    67   32   65 1
    68   33   34 ar
    69   33   37 1
    70   34   35 ar
    71   34   66 1
    72   35   36 1
    73   37   67 1
@<TRIPOS>MOLECULE
CHEMBL298398
   26    28     0     0     0
SMALL
USER_CHARGES

@<TRIPOS>ATOM
      1 C1         -0.0168    1.3845    0.0097 C.ar      1 <0>        -0.1270
      2 C2          1.1650    2.1000    0.0022 C.ar      1 <0>        -0.0478
      3 C3          2.3841    1.4267   -0.0127 C.ar      1 <0>        -0.1325
      4 C4          2.4065    0.0182   -0.0203 C.ar      1 <0>        -0.1001
      5 C5          1.2129   -0.6904   -0.0126 C.ar      1 <0>        -0.0965
      6 C6          0.0021   -0.0041    0.0020 C.ar      1 <0>         0.1340
      7 O1         -1.1658   -0.6952    0.0093 O.3       1 <0>        -0.4919
      8 C7          3.7040   -0.6939   -0.0350 C.2       1 <0>         0.4378
      9 O2          3.7510   -1.8807   -0.2926 O.2       1 <0>        -0.4231
     10 C8          4.9408    0.0547    0.2666 C.ar      1 <0>        -0.1324
     11 C9          6.1265   -0.6209    0.5446 C.ar      1 <0>        -0.0479
     12 C10         7.2758    0.0924    0.8256 C.ar      1 <0>        -0.1270
     13 C11         7.2572    1.4810    0.8327 C.ar      1 <0>         0.1339
     14 C12         6.0794    2.1695    0.5572 C.ar      1 <0>        -0.0965
     15 C13         4.9185    1.4631    0.2736 C.ar      1 <0>        -0.1000
     16 C14         3.6559    2.1775   -0.0200 C.2       1 <0>         0.4378
     17 O3          3.6655    3.3681   -0.2639 O.2       1 <0>        -0.4231
     18 O4          8.3930    2.1700    1.1100 O.3       1 <0>        -0.4918
     19 H1         -0.9611    1.9083    0.0260 H         1 <0>         0.1462
     20 H2          1.1436    3.1797    0.0076 H         1 <0>         0.1494
     21 H3          1.2237   -1.7704   -0.0192 H         1 <0>         0.1505
     22 H4         -1.5126   -0.8908   -0.8720 H         1 <0>         0.4010
     23 H5          6.1475   -1.7007    0.5409 H         1 <0>         0.1494
     24 H6          8.1943   -0.4331    1.0416 H         1 <0>         0.1462
     25 H7          6.0688    3.2495    0.5633 H         1 <0>         0.1505
     26 H8          8.9276    2.3768    0.3312 H         1 <0>         0.4009
@<TRIPOS>BOND
     1    1    6 ar
     2    1    2 ar
     3    1   19 1
     4    2    3 ar
     5    2   20 1
     6    3   16 1
     7    3    4 ar
     8    4    5 ar
     9    4    8 1
    10    5    6 ar
    11    5   21 1
    12    6    7 1
    13    7   22 1
    14    8    9 2
    15    8   10 1
    16   10   15 ar
    17   10   11 ar
    18   11   12 ar
    19   11   23 1
    20   12   13 ar
    21   12   24 1
    22   13   14 ar
    23   13   18 1
    24   14   15 ar
    25   14   25 1
    26   15   16 1
    27   16   17 2
    28   18   26 1
@<TRIPOS>MOLECULE
CHEMBL191646
   74    79     0     0     0
SMALL
USER_CHARGES

@<TRIPOS>ATOM
      1 C1         -0.5277    2.6487   -0.2936 C.ar      1 <0>        -0.0541
      2 C2          0.8186    2.9427   -0.1945 C.ar      1 <0>        -0.2063
      3 C3          1.7431    1.9196   -0.0249 C.ar      1 <0>         0.2400
      4 C4          1.3121    0.6017    0.0453 C.ar      1 <0>        -0.2246
      5 C5         -0.0392    0.3113   -0.0541 C.ar      1 <0>         0.1545
      6 C6         -0.9583    1.3376   -0.2240 C.ar      1 <0>        -0.2011
      7 O1         -0.4643   -0.9777    0.0137 O.3       1 <0>        -0.4995
      8 N1          3.1042    2.2165    0.0744 N.pl3     1 <0>        -0.6176
      9 C7          4.0960    1.1706    0.3749 C.3       1 <0>         0.1135
     10 C8          5.0179    1.0360   -0.8360 C.3       1 <0>        -0.1040
     11 C9          5.4877    2.3878   -1.3052 C.ar      1 <0>        -0.0468
     12 C10         6.6322    2.4338   -2.0907 C.ar      1 <0>        -0.1475
     13 C11         7.1131    3.6426   -2.5630 C.ar      1 <0>         0.1153
     14 C12         6.4448    4.8178   -2.2505 C.ar      1 <0>        -0.1454
     15 C13         5.3107    4.7703   -1.4681 C.ar      1 <0>        -0.0882
     16 C14         4.8327    3.5574   -0.9894 C.ar      1 <0>        -0.1011
     17 C15         3.6036    3.5815   -0.1226 C.3       1 <0>         0.2414
     18 C16         3.9498    4.1864    1.2136 C.ar      1 <0>        -0.1255
     19 C17         4.9826    3.6554    1.9644 C.ar      1 <0>        -0.0526
     20 C18         5.3025    4.2073    3.1893 C.ar      1 <0>        -0.1853
     21 C19         4.5856    5.2971    3.6668 C.ar      1 <0>         0.2021
     22 C20         3.5487    5.8280    2.9100 C.ar      1 <0>        -0.1831
     23 C21         3.2377    5.2747    1.6834 C.ar      1 <0>        -0.0567
     24 N2          4.9062    5.8575    4.9054 N.pl3     1 <0>        -0.6436
     25 C22         4.0810    6.9268    5.4882 C.3       1 <0>         0.1016
     26 C23         3.7331    6.5409    6.9297 C.3       1 <0>        -0.0269
     27 N3          4.9684    6.2565    7.6709 N.4       1 <0>        -0.3798
     28 C24         5.6362    5.0812    7.0975 C.3       1 <0>        -0.0269
     29 C25         6.0751    5.3908    5.6669 C.3       1 <0>         0.1002
     30 C26         4.6429    5.9940    9.0791 C.3       1 <0>         0.0249
     31 C27         3.9569    7.2219    9.6814 C.3       1 <0>        -0.1404
     32 C28         3.6180    6.9486   11.1481 C.3       1 <0>        -0.1173
     33 C29         4.9040    6.6519   11.9221 C.3       1 <0>        -0.1316
     34 C30         5.5900    5.4241   11.3198 C.3       1 <0>        -0.1173
     35 C31         5.9289    5.6974    9.8531 C.3       1 <0>        -0.1405
     36 O2          8.2345    3.6783   -3.3298 O.3       1 <0>        -0.4996
     37 H1         -1.2454    3.4456   -0.4212 H         1 <0>         0.1266
     38 H2          1.1525    3.9683   -0.2492 H         1 <0>         0.1205
     39 H3          2.0286   -0.1956    0.1767 H         1 <0>         0.1285
     40 H4         -2.0114    1.1111   -0.3015 H         1 <0>         0.1259
     41 H5         -0.6674   -1.2782    0.9101 H         1 <0>         0.3927
     42 H6          4.6778    1.4551    1.2516 H         1 <0>         0.0734
     43 H7          3.5889    0.2236    0.5595 H         1 <0>         0.0919
     44 H8          5.8825    0.4310   -0.5628 H         1 <0>         0.0878
     45 H9          4.4779    0.5436   -1.6447 H         1 <0>         0.0866
     46 H10         7.1514    1.5187   -2.3347 H         1 <0>         0.1299
     47 H11         6.8114    5.7649   -2.6180 H         1 <0>         0.1313
     48 H12         4.7898    5.6845   -1.2248 H         1 <0>         0.1260
     49 H13         2.8329    4.1836   -0.6038 H         1 <0>         0.1040
     50 H14         5.5393    2.8079    1.5927 H         1 <0>         0.1280
     51 H15         6.1090    3.7919    3.7753 H         1 <0>         0.1222
     52 H16         2.9891    6.6750    3.2786 H         1 <0>         0.1241
     53 H17         2.4346    5.6897    1.0925 H         1 <0>         0.1275
     54 H18         4.6387    7.8633    5.4841 H         1 <0>         0.0872
     55 H19         3.1651    7.0400    4.9082 H         1 <0>         0.1263
     56 H20         3.2034    7.3644    7.4086 H         1 <0>         0.1423
     57 H21         3.0993    5.6542    6.9257 H         1 <0>         0.1320
     58 H22         6.5088    4.8290    7.7001 H         1 <0>         0.1425
     59 H23         4.9448    4.2386    7.0885 H         1 <0>         0.1318
     60 H24         6.4770    4.4890    5.2050 H         1 <0>         0.1264
     61 H25         6.8376    6.1696    5.6812 H         1 <0>         0.0871
     62 H26         3.9739    5.1359    9.1436 H         1 <0>         0.1354
     63 H27         4.6260    8.0800    9.6169 H         1 <0>         0.0868
     64 H28         3.0407    7.4332    9.1300 H         1 <0>         0.0871
     65 H29         3.1293    7.8233   11.5772 H         1 <0>         0.0853
     66 H30         2.9490    6.0905   11.2126 H         1 <0>         0.0741
     67 H31         5.5730    7.5101   11.8576 H         1 <0>         0.0704
     68 H32         4.6625    6.4572   12.9670 H         1 <0>         0.0799
     69 H33         6.5062    5.2127   11.8712 H         1 <0>         0.0852
     70 H34         4.9210    4.5660   11.3843 H         1 <0>         0.0741
     71 H35         6.4176    4.8226    9.4240 H         1 <0>         0.0870
     72 H36         6.5980    6.5555    9.7886 H         1 <0>         0.0869
     73 H37         8.0648    3.6012   -4.2787 H         1 <0>         0.3952
     74 H38         5.5847    7.0533    7.6135 H         1 <0>         0.4199
@<TRIPOS>BOND
     1    1    6 ar
     2    1    2 ar
     3    1   37 1
     4    2    3 ar
     5    2   38 1
     6    3    4 ar
     7    3    8 1
     8    4    5 ar
     9    4   39 1
    10    5    6 ar
    11    5    7 1
    12    6   40 1
    13    7   41 1
    14    8   17 1
    15    8    9 1
    16    9   10 1
    17    9   42 1
    18    9   43 1
    19   10   11 1
    20   10   44 1
    21   10   45 1
    22   11   16 ar
    23   11   12 ar
    24   12   13 ar
    25   12   46 1
    26   13   14 ar
    27   13   36 1
    28   14   15 ar
    29   14   47 1
    30   15   16 ar
    31   15   48 1
    32   16   17 1
    33   17   18 1
    34   17   49 1
    35   18   23 ar
    36   18   19 ar
    37   19   20 ar
    38   19   50 1
    39   20   21 ar
    40   20   51 1
    41   21   22 ar
    42   21   24 1
    43   22   23 ar
    44   22   52 1
    45   23   53 1
    46   24   29 1
    47   24   25 1
    48   25   26 1
    49   25   54 1
    50   25   55 1
    51   26   27 1
    52   26   56 1
    53   26   57 1
    54   27   28 1
    55   27   30 1
    56   27   74 1
    57   28   29 1
    58   28   58 1
    59   28   59 1
    60   29   60 1
    61   29   61 1
    62   30   35 1
    63   30   31 1
    64   30   62 1
    65   31   32 1
    66   31   63 1
    67   31   64 1
    68   32   33 1
    69   32   65 1
    70   32   66 1
    71   33   34 1
    72   33   67 1
    73   33   68 1
    74   34   35 1
    75   34   69 1
    76   34   70 1
    77   35   71 1
    78   35   72 1
    79   36   73 1
@<TRIPOS>MOLECULE
CHEMBL191646__1
   74    79     0     0     0
SMALL
USER_CHARGES

@<TRIPOS>ATOM
      1 C1          7.0856    2.9096    2.2778 C.ar      1 <0>        -0.0533
      2 C2          5.9422    3.1487    1.5400 C.ar      1 <0>        -0.2072
      3 C3          5.2259    4.3241    1.7288 C.ar      1 <0>         0.2404
      4 C4          5.6605    5.2576    2.6601 C.ar      1 <0>        -0.2252
      5 C5          6.8075    5.0136    3.3983 C.ar      1 <0>         0.1546
      6 C6          7.5194    3.8376    3.2050 C.ar      1 <0>        -0.2013
      7 O1          7.2358    5.9254    4.3104 O.3       1 <0>        -0.5017
      8 N1          4.0706    4.5665    0.9824 N.pl3     1 <0>        -0.6179
      9 C7          3.2308    5.7494    1.2339 C.3       1 <0>         0.1130
     10 C8          1.8669    5.2620    1.7204 C.3       1 <0>        -0.1028
     11 C9          1.3455    4.1589    0.8374 C.ar      1 <0>        -0.0469
     12 C10        -0.0194    3.9032    0.8662 C.ar      1 <0>        -0.1476
     13 C11        -0.5630    2.8967    0.0871 C.ar      1 <0>         0.1149
     14 C12         0.2629    2.1365   -0.7286 C.ar      1 <0>        -0.1454
     15 C13         1.6168    2.3946   -0.7588 C.ar      1 <0>        -0.0885
     16 C14         2.1604    3.4084    0.0193 C.ar      1 <0>        -0.1003
     17 C15         3.6486    3.6561   -0.0873 C.3       1 <0>         0.2404
     18 C16         3.9642    4.2739   -1.4251 C.ar      1 <0>        -0.1256
     19 C17         4.9012    3.6841   -2.2536 C.ar      1 <0>        -0.0559
     20 C18         5.1928    4.2477   -3.4802 C.ar      1 <0>        -0.1838
     21 C19         4.5436    5.4084   -3.8815 C.ar      1 <0>         0.2023
     22 C20         3.6029    5.9983   -3.0468 C.ar      1 <0>        -0.1850
     23 C21         3.3120    5.4263   -1.8239 C.ar      1 <0>        -0.0530
     24 N2          4.8364    5.9813   -5.1212 N.pl3     1 <0>        -0.6436
     25 C22         4.2601    7.2775   -5.5105 C.3       1 <0>         0.1018
     26 C23         5.3933    8.1860   -5.9988 C.3       1 <0>        -0.0270
     27 N3          6.1368    7.5077   -7.0680 N.4       1 <0>        -0.3797
     28 C24         6.7942    6.3072   -6.5361 C.3       1 <0>        -0.0273
     29 C25         5.7348    5.3084   -6.0721 C.3       1 <0>         0.1004
     30 C26         7.1522    8.4200   -7.6107 C.3       1 <0>         0.0248
     31 C27         6.4681    9.6666   -8.1756 C.3       1 <0>        -0.1403
     32 C28         7.5257   10.6168   -8.7408 C.3       1 <0>        -0.1174
     33 C29         8.3015    9.9117   -9.8551 C.3       1 <0>        -0.1315
     34 C30         8.9856    8.6651   -9.2903 C.3       1 <0>        -0.1174
     35 C31         7.9280    7.7149   -8.7251 C.3       1 <0>        -0.1404
     36 O2         -1.8998    2.6544    0.1205 O.3       1 <0>        -0.4975
     37 H1          7.6388    1.9935    2.1327 H         1 <0>         0.1269
     38 H2          5.6053    2.4217    0.8159 H         1 <0>         0.1213
     39 H3          5.1058    6.1723    2.8087 H         1 <0>         0.1282
     40 H4          8.4134    3.6476    3.7804 H         1 <0>         0.1259
     41 H5          6.8745    5.7939    5.1976 H         1 <0>         0.3948
     42 H6          3.6932    6.3742    1.9980 H         1 <0>         0.0922
     43 H7          3.1116    6.3196    0.3127 H         1 <0>         0.0731
     44 H8          1.9621    4.8899    2.7405 H         1 <0>         0.0861
     45 H9          1.1633    6.0944    1.7075 H         1 <0>         0.0876
     46 H10        -0.6617    4.4943    1.5021 H         1 <0>         0.1300
     47 H11        -0.1528    1.3469   -1.3370 H         1 <0>         0.1313
     48 H12         2.2604    1.8027   -1.3926 H         1 <0>         0.1260
     49 H13         4.1822    2.7105    0.0096 H         1 <0>         0.1049
     50 H14         5.4058    2.7819   -1.9409 H         1 <0>         0.1277
     51 H15         5.9249    3.7867   -4.1267 H         1 <0>         0.1239
     52 H16         3.0967    6.9009   -3.3555 H         1 <0>         0.1224
     53 H17         2.5775    5.8820   -1.1763 H         1 <0>         0.1281
     54 H18         3.5368    7.1307   -6.3127 H         1 <0>         0.0870
     55 H19         3.7699    7.7336   -4.6504 H         1 <0>         0.1256
     56 H20         4.9739    9.1164   -6.3816 H         1 <0>         0.1422
     57 H21         6.0666    8.4045   -5.1701 H         1 <0>         0.1321
     58 H22         7.4071    5.8533   -7.3148 H         1 <0>         0.1427
     59 H23         7.4252    6.5826   -5.6911 H         1 <0>         0.1321
     60 H24         6.2192    4.4632   -5.5831 H         1 <0>         0.1269
     61 H25         5.1630    4.9594   -6.9320 H         1 <0>         0.0870
     62 H26         7.8403    8.7113   -6.8171 H         1 <0>         0.1356
     63 H27         5.7800    9.3753   -8.9692 H         1 <0>         0.0867
     64 H28         5.9154   10.1689   -7.3817 H         1 <0>         0.0869
     65 H29         7.0383   11.5049   -9.1432 H         1 <0>         0.0852
     66 H30         8.2137   10.9081   -7.9472 H         1 <0>         0.0742
     67 H31         7.6134    9.6204  -10.6487 H         1 <0>         0.0704
     68 H32         9.0549   10.5886  -10.2578 H         1 <0>         0.0799
     69 H33         9.5383    8.1628  -10.0842 H         1 <0>         0.0853
     70 H34         9.6737    8.9564   -8.4967 H         1 <0>         0.0743
     71 H35         8.4154    6.8268   -8.3227 H         1 <0>         0.0872
     72 H36         7.2399    7.4236   -9.5187 H         1 <0>         0.0868
     73 H37        -2.4075    3.1598   -0.5291 H         1 <0>         0.3929
     74 H38         5.4990    7.2424   -7.8035 H         1 <0>         0.4198
@<TRIPOS>BOND
     1    1    6 ar
     2    1    2 ar
     3    1   37 1
     4    2    3 ar
     5    2   38 1
     6    3    4 ar
     7    3    8 1
     8    4    5 ar
     9    4   39 1
    10    5    6 ar
    11    5    7 1
    12    6   40 1
    13    7   41 1
    14    8   17 1
    15    8    9 1
    16    9   10 1
    17    9   42 1
    18    9   43 1
    19   10   11 1
    20   10   44 1
    21   10   45 1
    22   11   16 ar
    23   11   12 ar
    24   12   13 ar
    25   12   46 1
    26   13   14 ar
    27   13   36 1
    28   14   15 ar
    29   14   47 1
    30   15   16 ar
    31   15   48 1
    32   16   17 1
    33   17   18 1
    34   17   49 1
    35   18   23 ar
    36   18   19 ar
    37   19   20 ar
    38   19   50 1
    39   20   21 ar
    40   20   51 1
    41   21   22 ar
    42   21   24 1
    43   22   23 ar
    44   22   52 1
    45   23   53 1
    46   24   29 1
    47   24   25 1
    48   25   26 1
    49   25   54 1
    50   25   55 1
    51   26   27 1
    52   26   56 1
    53   26   57 1
    54   27   28 1
    55   27   30 1
    56   27   74 1
    57   28   29 1
    58   28   58 1
    59   28   59 1
    60   29   60 1
    61   29   61 1
    62   30   35 1
    63   30   31 1
    64   30   62 1
    65   31   32 1
    66   31   63 1
    67   31   64 1
    68   32   33 1
    69   32   65 1
    70   32   66 1
    71   33   34 1
    72   33   67 1
    73   33   68 1
    74   34   35 1
    75   34   69 1
    76   34   70 1
    77   35   71 1
    78   35   72 1
    79   36   73 1
@<TRIPOS>MOLECULE
CHEMBL381566
   54    57     0     0     0
SMALL
USER_CHARGES

@<TRIPOS>ATOM
      1 C1          0.1529    1.6248    0.0667 C.3       1 <0>        -0.1365
      2 C2          0.2063    0.0909    0.0372 C.3       1 <0>        -0.0252
      3 C3         -1.1783   -0.4928    0.0017 C.3       1 <0>        -0.1007
      4 C4         -1.8548   -0.4266    1.3775 C.3       1 <0>        -0.1070
      5 C5         -1.0322    0.2788    2.4368 C.3       1 <0>        -0.0685
      6 C6          0.3804   -0.2639    2.5652 C.3       1 <0>        -0.0540
      7 C7          1.0050   -0.4985    1.2104 C.3       1 <0>        -0.0829
      8 C8          2.4006    0.0929    0.9723 C.3       1 <0>        -0.1137
      9 C9          2.5630   -0.0457   -0.5670 C.3       1 <0>        -0.1458
     10 C10         1.1368   -0.2550   -1.1436 C.3       1 <0>         0.2392
     11 C11         0.9698   -1.6354   -1.6002 C.1       1 <0>        -0.2066
     12 C12         0.8359   -2.7428   -1.9665 C.1       1 <0>        -0.1791
     13 O1          0.9038    0.6623   -2.2148 O.3       1 <0>        -0.5403
     14 C13         0.3480   -1.6282    3.2762 C.3       1 <0>        -0.0856
     15 C14        -0.4303   -1.5538    4.5491 C.2       1 <0>        -0.1503
     16 C15        -1.3678   -0.6804    4.7601 C.2       1 <0>        -0.1019
     17 C16        -1.7636    0.3656    3.7658 C.3       1 <0>         0.0180
     18 C17        -3.2773    0.3162    3.5535 C.3       1 <0>        -0.0996
     19 C18        -4.0139    0.3773    4.8901 C.3       1 <0>        -0.1125
     20 C19        -3.6087   -0.7934    5.7847 C.3       1 <0>         0.1105
     21 H1         -3.8315   -1.7332    5.2787 H         1 <0>         0.0535
     22 C20        -2.1084   -0.7208    6.0862 C.3       1 <0>        -0.1220
     23 O2         -4.3418   -0.7310    7.0109 O.3       1 <0>        -0.5690
     24 C21        -1.4201    1.7159    4.3505 C.2       1 <0>        -0.1453
     25 C22        -0.6853    1.7936    5.4323 C.2       1 <0>        -0.1927
     26 H2          1.1493    2.0266   -0.1172 H         1 <0>         0.0594
     27 H3         -0.5300    1.9794   -0.7053 H         1 <0>         0.0621
     28 H4         -0.1985    1.9574    1.0434 H         1 <0>         0.0626
     29 H5         -1.7919    0.0598   -0.7282 H         1 <0>         0.0633
     30 H6         -1.1661   -1.5423   -0.3191 H         1 <0>         0.0609
     31 H7         -2.8216    0.0849    1.2656 H         1 <0>         0.0661
     32 H8         -2.0718   -1.4512    1.7130 H         1 <0>         0.0577
     33 H9         -0.9580    1.3400    2.1528 H         1 <0>         0.0785
     34 H10         1.0007    0.4260    3.1508 H         1 <0>         0.0774
     35 H11         1.0876   -1.6007    1.0746 H         1 <0>         0.0721
     36 H12         2.4639    1.1283    1.2881 H         1 <0>         0.0758
     37 H13         3.1577   -0.5059    1.4852 H         1 <0>         0.0667
     38 H14         3.0002    0.8625   -0.9803 H         1 <0>         0.0818
     39 H15         3.1881   -0.9063   -0.8009 H         1 <0>         0.0702
     40 H16         0.7161   -3.7331   -2.2942 H         1 <0>         0.2186
     41 H17         1.4550    0.5056   -2.9937 H         1 <0>         0.3767
     42 H18        -0.1106   -2.3624    2.6104 H         1 <0>         0.0732
     43 H19         1.3730   -1.9379    3.4907 H         1 <0>         0.0684
     44 H20        -0.2051   -2.2621    5.3356 H         1 <0>         0.1041
     45 H21        -3.5836    1.1612    2.9331 H         1 <0>         0.0739
     46 H22        -3.5430   -0.6130    3.0431 H         1 <0>         0.0705
     47 H23        -3.8116    1.3167    5.3992 H         1 <0>         0.0722
     48 H24        -5.0925    0.3173    4.7014 H         1 <0>         0.0670
     49 H25        -1.8065   -1.6076    6.6463 H         1 <0>         0.0671
     50 H26        -1.8892    0.1698    6.6699 H         1 <0>         0.0869
     51 H27        -4.1353   -1.4451    7.6293 H         1 <0>         0.3776
     52 H28        -1.7803    2.6171    3.8766 H         1 <0>         0.1095
     53 H29        -0.2937    0.8945    5.8847 H         1 <0>         0.1030
     54 H30        -0.4713    2.7566    5.8717 H         1 <0>         0.0944
@<TRIPOS>BOND
     1    1    2 1
     2    1   26 1
     3    1   27 1
     4    1   28 1
     5    2    7 1
     6    2   10 1
     7    2    3 1
     8    3    4 1
     9    3   29 1
    10    3   30 1
    11    4    5 1
    12    4   31 1
    13    4   32 1
    14    5   17 1
    15    5    6 1
    16    5   33 1
    17    6    7 1
    18    6   14 1
    19    6   34 1
    20    7    8 1
    21    7   35 1
    22    8    9 1
    23    8   36 1
    24    8   37 1
    25    9   10 1
    26    9   38 1
    27    9   39 1
    28   10   11 1
    29   10   13 1
    30   11   12 3
    31   12   40 1
    32   13   41 1
    33   14   15 1
    34   14   42 1
    35   14   43 1
    36   15   16 2
    37   15   44 1
    38   16   22 1
    39   16   17 1
    40   17   18 1
    41   17   24 1
    42   18   19 1
    43   18   45 1
    44   18   46 1
    45   19   20 1
    46   19   47 1
    47   19   48 1
    48   20   21 1
    49   20   22 1
    50   20   23 1
    51   22   49 1
    52   22   50 1
    53   23   51 1
    54   24   25 2
    55   24   52 1
    56   25   53 1
    57   25   54 1
@<TRIPOS>MOLECULE
CHEMBL381566__1
   54    57     0     0     0
SMALL
USER_CHARGES

@<TRIPOS>ATOM
      1 C1          0.9842    1.0659    0.0197 C.3       1 <0>        -0.1331
      2 C2          0.6817   -0.4624    0.0273 C.3       1 <0>        -0.0297
      3 C3         -0.8169   -0.5667   -0.0716 C.3       1 <0>        -0.1017
      4 C4         -1.4019   -1.8577    0.4891 C.3       1 <0>        -0.1166
      5 C5         -0.9338   -1.9927    1.9417 C.3       1 <0>        -0.0645
      6 C6          0.5772   -2.2006    1.9261 C.3       1 <0>        -0.0679
      7 C7          1.2956   -1.0016    1.3204 C.3       1 <0>        -0.0690
      8 C8          2.7224   -1.4551    0.9225 C.3       1 <0>        -0.1196
      9 C9          2.6124   -1.8799   -0.5513 C.3       1 <0>        -0.1460
     10 C10         1.4613   -1.0454   -1.1541 C.3       1 <0>         0.2539
     11 C11         0.6417   -1.8766   -2.0489 C.1       1 <0>        -0.2028
     12 C12        -0.0125   -2.5400   -2.7632 C.1       1 <0>        -0.1809
     13 O1          2.0269    0.0352   -1.9262 O.3       1 <0>        -0.5474
     14 C13         0.9044   -3.4855    1.1695 C.3       1 <0>        -0.0886
     15 C14         0.1125   -4.6250    1.7463 C.2       1 <0>        -0.1545
     16 C15        -1.0078   -4.4688    2.3884 C.2       1 <0>        -0.1023
     17 C16        -1.6457   -3.1351    2.6455 C.3       1 <0>         0.0219
     18 C17        -3.1178   -3.1822    2.2311 C.3       1 <0>        -0.1013
     19 C18        -3.8228   -4.3799    2.8661 C.3       1 <0>        -0.1120
     20 C19        -3.1605   -5.6801    2.4091 C.3       1 <0>         0.1099
     21 H1         -3.1727   -5.7306    1.3199 H         1 <0>         0.0535
     22 C20        -1.7113   -5.7134    2.9037 C.3       1 <0>        -0.1213
     23 O2         -3.8736   -6.7954    2.9459 O.3       1 <0>        -0.5682
     24 C21        -1.5824   -2.8598    4.1302 C.2       1 <0>        -0.1430
     25 C22        -0.8803   -3.6420    4.9121 C.2       1 <0>        -0.1927
     26 H2          2.0626    1.2230    0.0413 H         1 <0>         0.0612
     27 H3          0.5698    1.5139   -0.8835 H         1 <0>         0.0592
     28 H4          0.5318    1.5302    0.8960 H         1 <0>         0.0490
     29 H5         -1.2411    0.2672    0.5183 H         1 <0>         0.0596
     30 H6         -1.1585   -0.4105   -1.0904 H         1 <0>         0.0652
     31 H7         -2.4942   -1.7856    0.4635 H         1 <0>         0.0665
     32 H8         -1.0871   -2.7175   -0.0919 H         1 <0>         0.0700
     33 H9         -1.1553   -1.0609    2.4722 H         1 <0>         0.0744
     34 H10         0.9218   -2.3164    2.9650 H         1 <0>         0.0706
     35 H11         1.3588   -0.1886    2.0726 H         1 <0>         0.0829
     36 H12         3.4229   -0.6232    1.0215 H         1 <0>         0.0678
     37 H13         3.0506   -2.2861    1.5416 H         1 <0>         0.0755
     38 H14         3.5459   -1.6582   -1.0729 H         1 <0>         0.0746
     39 H15         2.3934   -2.9429   -0.6293 H         1 <0>         0.0793
     40 H16        -0.5976   -3.1334   -3.4020 H         1 <0>         0.2172
     41 H17         2.5373   -0.2554   -2.6944 H         1 <0>         0.3740
     42 H18         0.6521   -3.3818    0.1166 H         1 <0>         0.0817
     43 H19         1.9673   -3.7161    1.2652 H         1 <0>         0.0723
     44 H20         0.4962   -5.6275    1.6219 H         1 <0>         0.1027
     45 H21        -3.6124   -2.2614    2.5446 H         1 <0>         0.0735
     46 H22        -3.1875   -3.2742    1.1445 H         1 <0>         0.0720
     47 H23        -3.7968   -4.3130    3.9502 H         1 <0>         0.0722
     48 H24        -4.8696   -4.3858    2.5438 H         1 <0>         0.0674
     49 H25        -1.2134   -6.6012    2.5108 H         1 <0>         0.0665
     50 H26        -1.6897   -5.7350    3.9908 H         1 <0>         0.0852
     51 H27        -3.5068   -7.6543    2.6953 H         1 <0>         0.3776
     52 H28        -2.1159   -2.0181    4.5466 H         1 <0>         0.1091
     53 H29        -0.2750   -4.4286    4.4864 H         1 <0>         0.1021
     54 H30        -0.9068   -3.5002    5.9824 H         1 <0>         0.0942
@<TRIPOS>BOND
     1    1    2 1
     2    1   26 1
     3    1   27 1
     4    1   28 1
     5    2    7 1
     6    2   10 1
     7    2    3 1
     8    3    4 1
     9    3   29 1
    10    3   30 1
    11    4    5 1
    12    4   31 1
    13    4   32 1
    14    5   17 1
    15    5    6 1
    16    5   33 1
    17    6    7 1
    18    6   14 1
    19    6   34 1
    20    7    8 1
    21    7   35 1
    22    8    9 1
    23    8   36 1
    24    8   37 1
    25    9   10 1
    26    9   38 1
    27    9   39 1
    28   10   11 1
    29   10   13 1
    30   11   12 3
    31   12   40 1
    32   13   41 1
    33   14   15 1
    34   14   42 1
    35   14   43 1
    36   15   16 2
    37   15   44 1
    38   16   22 1
    39   16   17 1
    40   17   18 1
    41   17   24 1
    42   18   19 1
    43   18   45 1
    44   18   46 1
    45   19   20 1
    46   19   47 1
    47   19   48 1
    48   20   21 1
    49   20   22 1
    50   20   23 1
    51   22   49 1
    52   22   50 1
    53   23   51 1
    54   24   25 2
    55   24   52 1
    56   25   53 1
    57   25   54 1
@<TRIPOS>MOLECULE
CHEMBL381566__2
   54    57     0     0     0
SMALL
USER_CHARGES

@<TRIPOS>ATOM
      1 C1         -0.3274    1.1813   -0.1886 C.3       1 <0>        -0.1407
      2 C2         -0.2825   -0.3438   -0.0575 C.3       1 <0>        -0.0311
      3 C3         -1.6340   -0.8890    0.2926 C.3       1 <0>        -0.1039
      4 C4         -2.1320   -0.6231    1.7289 C.3       1 <0>        -0.1122
      5 C5         -1.1707    0.2295    2.5474 C.3       1 <0>        -0.0884
      6 C6          0.2984   -0.3273    2.4459 C.3       1 <0>        -0.0720
      7 C7          0.6624   -0.7985    1.0983 C.3       1 <0>        -0.0600
      8 C8          1.9970   -0.2662    0.5950 C.3       1 <0>        -0.1188
      9 C9          1.9207   -0.6126   -0.9364 C.3       1 <0>        -0.1605
     10 C10         0.4368   -0.8197   -1.2872 C.3       1 <0>         0.2557
     11 C11         0.2262   -2.2314   -1.5132 C.1       1 <0>        -0.2084
     12 C12         0.0551   -3.3783   -1.6968 C.1       1 <0>        -0.1779
     13 O1          0.0816    0.0048   -2.3441 O.3       1 <0>        -0.5234
     14 C13         1.1296    0.7762    3.0451 C.3       1 <0>        -0.0817
     15 C14         0.6842    1.1069    4.4170 C.2       1 <0>        -0.1530
     16 C15        -0.4782    0.9368    4.8688 C.2       1 <0>        -0.1006
     17 C16        -1.5553    0.3149    3.9865 C.3       1 <0>         0.0187
     18 C17        -2.0599   -1.0000    4.4980 C.3       1 <0>        -0.0844
     19 C18        -1.4262   -1.2440    5.9114 C.3       1 <0>        -0.1178
     20 C19        -1.6062   -0.0057    6.8627 C.3       1 <0>         0.0987
     21 H1         -1.2013   -0.2636    7.8383 H         1 <0>         0.0570
     22 C20        -0.8774    1.2248    6.3461 C.3       1 <0>        -0.1062
     23 O2         -3.0181    0.2632    6.9267 O.3       1 <0>        -0.5616
     24 C21        -2.7720    1.3261    3.9916 C.2       1 <0>        -0.1371
     25 C22        -3.1601    1.8896    2.8744 C.2       1 <0>        -0.2250
     26 H2          0.6876    1.5682   -0.2788 H         1 <0>         0.0581
     27 H3         -0.9001    1.4531   -1.0753 H         1 <0>         0.0690
     28 H4         -0.8017    1.6081    0.6951 H         1 <0>         0.0597
     29 H5         -2.3594   -0.3880   -0.4257 H         1 <0>         0.0530
     30 H6         -1.6782   -1.9991    0.0797 H         1 <0>         0.0622
     31 H7         -3.1143   -0.0729    1.6989 H         1 <0>         0.0698
     32 H8         -2.3297   -1.5920    2.2038 H         1 <0>         0.0661
     33 H9         -1.1744    1.2827    2.1369 H         1 <0>         0.0919
     34 H10         0.3699   -1.1367    3.2119 H         1 <0>         0.0655
     35 H11         0.6883   -1.8560    1.1391 H         1 <0>         0.0717
     36 H12         2.1290    0.7814    0.6942 H         1 <0>         0.0779
     37 H13         2.8683   -0.8332    1.0786 H         1 <0>         0.0666
     38 H14         2.2996    0.2055   -1.5453 H         1 <0>         0.0798
     39 H15         2.5114   -1.5241   -1.0693 H         1 <0>         0.0694
     40 H16        -0.0979   -4.4040   -1.8610 H         1 <0>         0.2183
     41 H17         0.5008   -0.2290   -3.1835 H         1 <0>         0.3775
     42 H18         2.1646    0.4085    3.0718 H         1 <0>         0.0647
     43 H19         1.1157    1.7168    2.3963 H         1 <0>         0.0759
     44 H20         1.4393    1.5557    5.1492 H         1 <0>         0.1023
     45 H21        -3.1004   -1.0329    4.6574 H         1 <0>         0.0794
     46 H22        -1.7132   -1.7864    3.9125 H         1 <0>         0.0677
     47 H23        -1.9577   -2.0952    6.4033 H         1 <0>         0.0678
     48 H24        -0.3743   -1.3910    5.8695 H         1 <0>         0.0705
     49 H25         0.0387    1.3934    6.8336 H         1 <0>         0.0754
     50 H26        -1.5375    2.0581    6.3550 H         1 <0>         0.0843
     51 H27        -3.2504    1.0137    7.4905 H         1 <0>         0.3711
     52 H28        -3.2827    1.5519    4.9160 H         1 <0>         0.1131
     53 H29        -2.7127    1.5943    1.9369 H         1 <0>         0.1131
     54 H30        -3.9273    2.6495    2.8910 H         1 <0>         0.0929
@<TRIPOS>BOND
     1    1    2 1
     2    1   26 1
     3    1   27 1
     4    1   28 1
     5    2    7 1
     6    2   10 1
     7    2    3 1
     8    3    4 1
     9    3   29 1
    10    3   30 1
    11    4    5 1
    12    4   31 1
    13    4   32 1
    14    5   17 1
    15    5    6 1
    16    5   33 1
    17    6    7 1
    18    6   14 1
    19    6   34 1
    20    7    8 1
    21    7   35 1
    22    8    9 1
    23    8   36 1
    24    8   37 1
    25    9   10 1
    26    9   38 1
    27    9   39 1
    28   10   11 1
    29   10   13 1
    30   11   12 3
    31   12   40 1
    32   13   41 1
    33   14   15 1
    34   14   42 1
    35   14   43 1
    36   15   16 2
    37   15   44 1
    38   16   22 1
    39   16   17 1
    40   17   18 1
    41   17   24 1
    42   18   19 1
    43   18   45 1
    44   18   46 1
    45   19   20 1
    46   19   47 1
    47   19   48 1
    48   20   21 1
    49   20   22 1
    50   20   23 1
    51   22   49 1
    52   22   50 1
    53   23   51 1
    54   24   25 2
    55   24   52 1
    56   25   53 1
    57   25   54 1
@<TRIPOS>MOLECULE
CHEMBL381566__3
   54    57     0     0     0
SMALL
USER_CHARGES

@<TRIPOS>ATOM
      1 C1         -0.0484    1.3373   -0.5136 C.3       1 <0>        -0.1325
      2 C2         -0.0077   -0.1852   -0.3677 C.3       1 <0>        -0.0334
      3 C3         -1.4193   -0.7238   -0.4243 C.3       1 <0>        -0.1013
      4 C4         -1.4362   -2.2255   -0.1489 C.3       1 <0>        -0.1948
      5 C5         -0.8630   -2.4795    1.2521 C.3       1 <0>        -0.0574
      6 C6          0.5920   -2.0127    1.2863 C.3       1 <0>        -0.0724
      7 C7          0.7140   -0.5426    0.9417 C.3       1 <0>        -0.0764
      8 C8          2.2040   -0.3049    0.5532 C.3       1 <0>        -0.1215
      9 C9          2.2985   -0.8416   -0.8921 C.3       1 <0>        -0.1454
     10 C10         0.8740   -0.7694   -1.4792 C.3       1 <0>         0.2464
     11 C11         0.4060   -2.1167   -1.8433 C.1       1 <0>        -0.1813
     12 C12         0.0328   -3.1912   -2.1337 C.1       1 <0>        -0.1793
     13 O1          0.8554    0.0859   -2.6238 O.3       1 <0>        -0.5393
     14 C13         1.1313   -2.2138    2.7103 C.3       1 <0>        -0.0841
     15 C14         0.8924   -3.6245    3.1558 C.2       1 <0>        -0.1615
     16 C15        -0.0095   -4.3962    2.6394 C.2       1 <0>        -0.0957
     17 C16        -0.9361   -3.9764    1.5320 C.3       1 <0>         0.0169
     18 C17        -0.6172   -4.7850    0.2767 C.3       1 <0>        -0.1015
     19 C18        -0.0328   -6.1431    0.6639 C.3       1 <0>        -0.1121
     20 C19        -0.6580   -6.6625    1.9571 C.3       1 <0>         0.1085
     21 H1         -0.3742   -7.7045    2.1048 H         1 <0>         0.0507
     22 C20        -0.1587   -5.8230    3.1424 C.3       1 <0>        -0.1233
     23 O2         -2.0810   -6.5642    1.8710 O.3       1 <0>        -0.5490
     24 C21        -2.3461   -4.3108    1.9455 C.2       1 <0>        -0.0666
     25 C22        -2.6333   -4.4858    3.2116 C.2       1 <0>        -0.2410
     26 H2          0.9691    1.7274   -0.5361 H         1 <0>         0.0587
     27 H3         -0.5589    1.6000   -1.4401 H         1 <0>         0.0640
     28 H4         -0.5845    1.7691    0.3316 H         1 <0>         0.0528
     29 H5         -2.0279   -0.2150    0.3233 H         1 <0>         0.0614
     30 H6         -1.8359   -0.5357   -1.4138 H         1 <0>         0.0621
     31 H7         -2.4609   -2.5940   -0.1966 H         1 <0>         0.0556
     32 H8         -0.8263   -2.7398   -0.8917 H         1 <0>         0.1335
     33 H9         -1.4514   -1.9384    1.9931 H         1 <0>         0.0673
     34 H10         1.1800   -2.5937    0.5758 H         1 <0>         0.0757
     35 H11         0.3895    0.0838    1.7725 H         1 <0>         0.0882
     36 H12         2.4424    0.7583    0.5830 H         1 <0>         0.0719
     37 H13         2.8658   -0.8653    1.2136 H         1 <0>         0.0727
     38 H14         2.9763   -0.2206   -1.4779 H         1 <0>         0.0803
     39 H15         2.6482   -1.8740   -0.8854 H         1 <0>         0.0723
     40 H16        -0.3011   -4.1522   -2.3934 H         1 <0>         0.2214
     41 H17         1.3954   -0.2314   -3.3606 H         1 <0>         0.3782
     42 H18         2.2013   -2.0065    2.7244 H         1 <0>         0.0699
     43 H19         0.6232   -1.5291    3.3894 H         1 <0>         0.0719
     44 H20         1.5063   -4.0190    3.9519 H         1 <0>         0.1011
     45 H21        -1.5308   -4.9351   -0.2986 H         1 <0>         0.0677
     46 H22         0.1054   -4.2402   -0.3307 H         1 <0>         0.0734
     47 H23        -0.2244   -6.8565   -0.1376 H         1 <0>         0.0650
     48 H24         1.0437   -6.0428    0.8023 H         1 <0>         0.0709
     49 H25         0.8049   -6.1998    3.4852 H         1 <0>         0.0719
     50 H26        -0.8838   -5.8573    3.9556 H         1 <0>         0.0849
     51 H27        -2.5453   -6.8773    2.6594 H         1 <0>         0.3711
     52 H28        -3.1198   -4.4063    1.1981 H         1 <0>         0.1024
     53 H29        -1.8844   -4.2964    3.9664 H         1 <0>         0.0925
     54 H30        -3.6189   -4.8196    3.5006 H         1 <0>         0.0884
@<TRIPOS>BOND
     1    1    2 1
     2    1   26 1
     3    1   27 1
     4    1   28 1
     5    2    7 1
     6    2   10 1
     7    2    3 1
     8    3    4 1
     9    3   29 1
    10    3   30 1
    11    4    5 1
    12    4   31 1
    13    4   32 1
    14    5   17 1
    15    5    6 1
    16    5   33 1
    17    6    7 1
    18    6   14 1
    19    6   34 1
    20    7    8 1
    21    7   35 1
    22    8    9 1
    23    8   36 1
    24    8   37 1
    25    9   10 1
    26    9   38 1
    27    9   39 1
    28   10   11 1
    29   10   13 1
    30   11   12 3
    31   12   40 1
    32   13   41 1
    33   14   15 1
    34   14   42 1
    35   14   43 1
    36   15   16 2
    37   15   44 1
    38   16   22 1
    39   16   17 1
    40   17   18 1
    41   17   24 1
    42   18   19 1
    43   18   45 1
    44   18   46 1
    45   19   20 1
    46   19   47 1
    47   19   48 1
    48   20   21 1
    49   20   22 1
    50   20   23 1
    51   22   49 1
    52   22   50 1
    53   23   51 1
    54   24   25 2
    55   24   52 1
    56   25   53 1
    57   25   54 1
@<TRIPOS>MOLECULE
CHEMBL381566__4
   54    57     0     0     0
SMALL
USER_CHARGES

@<TRIPOS>ATOM
      1 C1          0.6240    1.8282    0.5542 C.3       1 <0>        -0.1357
      2 C2          0.7386    0.3041    0.4824 C.3       1 <0>        -0.0429
      3 C3         -0.6290   -0.3037    0.2355 C.3       1 <0>        -0.1006
      4 C4         -1.5655    0.2293    1.3310 C.3       1 <0>        -0.1182
      5 C5         -1.0477   -0.1013    2.7281 C.3       1 <0>        -0.0634
      6 C6          0.3961    0.3788    2.9301 C.3       1 <0>        -0.0698
      7 C7          1.2454   -0.2507    1.8406 C.3       1 <0>        -0.0827
      8 C8          2.7175    0.1752    1.8203 C.3       1 <0>        -0.1131
      9 C9          3.1435   -0.1166    0.3555 C.3       1 <0>        -0.1447
     10 C10         1.8465   -0.0863   -0.4908 C.3       1 <0>         0.2498
     11 C11         1.5786   -1.4165   -1.0614 C.1       1 <0>        -0.2083
     12 C12         1.3650   -2.4774   -1.5165 C.1       1 <0>        -0.1822
     13 O1          1.9570    0.8868   -1.5314 O.3       1 <0>        -0.5403
     14 C13         0.8759   -0.1112    4.3008 C.3       1 <0>        -0.0842
     15 C14        -0.0708    0.3750    5.3591 C.2       1 <0>        -0.1522
     16 C15        -1.3214    0.6434    5.1228 C.2       1 <0>        -0.1023
     17 C16        -1.9635    0.5124    3.7738 C.3       1 <0>         0.0170
     18 C17        -3.2463   -0.3145    3.8978 C.3       1 <0>        -0.1008
     19 C18        -4.1501    0.3081    4.9638 C.3       1 <0>        -0.1128
     20 C19        -3.4512    0.2607    6.3236 C.3       1 <0>         0.1096
     21 H1         -3.1819   -0.7692    6.5579 H         1 <0>         0.0535
     22 C20        -2.1852    1.1224    6.2775 C.3       1 <0>        -0.1222
     23 O2         -4.3327    0.7632    7.3299 O.3       1 <0>        -0.5681
     24 C21        -2.3553    1.8900    3.3049 C.2       1 <0>        -0.1403
     25 C22        -1.9376    2.9470    3.9563 C.2       1 <0>        -0.1959
     26 H2          1.6017    2.2561    0.7756 H         1 <0>         0.0563
     27 H3          0.2678    2.2112   -0.4021 H         1 <0>         0.0611
     28 H4         -0.0794    2.1030    1.3403 H         1 <0>         0.0668
     29 H5         -0.9970   -0.0041   -0.7458 H         1 <0>         0.0655
     30 H6         -0.5687   -1.3904    0.2948 H         1 <0>         0.0635
     31 H7         -1.6504    1.3113    1.2304 H         1 <0>         0.0751
     32 H8         -2.5519   -0.2165    1.2031 H         1 <0>         0.0628
     33 H9         -1.0617   -1.1841    2.8524 H         1 <0>         0.0665
     34 H10         0.4447    1.4658    2.8651 H         1 <0>         0.0881
     35 H11         1.1548   -1.3367    1.8653 H         1 <0>         0.0771
     36 H12         2.8149    1.2371    2.0461 H         1 <0>         0.0747
     37 H13         3.3020   -0.4238    2.5186 H         1 <0>         0.0701
     38 H14         3.8355    0.6502    0.0073 H         1 <0>         0.0804
     39 H15         3.6099   -1.0996    0.2903 H         1 <0>         0.0718
     40 H16         1.1740   -3.4263   -1.9235 H         1 <0>         0.2179
     41 H17         2.6461    0.6914   -2.1811 H         1 <0>         0.3778
     42 H18         0.9025   -1.2009    4.3090 H         1 <0>         0.0734
     43 H19         1.8742    0.2795    4.4981 H         1 <0>         0.0723
     44 H20         0.3038    0.5085    6.3632 H         1 <0>         0.1049
     45 H21        -3.7668   -0.3241    2.9401 H         1 <0>         0.0749
     46 H22        -2.9946   -1.3353    4.1855 H         1 <0>         0.0662
     47 H23        -4.3608    1.3446    4.7003 H         1 <0>         0.0737
     48 H24        -5.0853   -0.2492    5.0170 H         1 <0>         0.0696
     49 H25        -1.6367    1.0187    7.2138 H         1 <0>         0.0680
     50 H26        -2.4566    2.1668    6.1242 H         1 <0>         0.0870
     51 H27        -3.9545    0.7626    8.2199 H         1 <0>         0.3775
     52 H28        -2.9805    2.0058    2.4319 H         1 <0>         0.1113
     53 H29        -1.2348    2.8377    4.7690 H         1 <0>         0.1021
     54 H30        -2.2961    3.9278    3.6806 H         1 <0>         0.0944
@<TRIPOS>BOND
     1    1    2 1
     2    1   26 1
     3    1   27 1
     4    1   28 1
     5    2    7 1
     6    2   10 1
     7    2    3 1
     8    3    4 1
     9    3   29 1
    10    3   30 1
    11    4    5 1
    12    4   31 1
    13    4   32 1
    14    5   17 1
    15    5    6 1
    16    5   33 1
    17    6    7 1
    18    6   14 1
    19    6   34 1
    20    7    8 1
    21    7   35 1
    22    8    9 1
    23    8   36 1
    24    8   37 1
    25    9   10 1
    26    9   38 1
    27    9   39 1
    28   10   11 1
    29   10   13 1
    30   11   12 3
    31   12   40 1
    32   13   41 1
    33   14   15 1
    34   14   42 1
    35   14   43 1
    36   15   16 2
    37   15   44 1
    38   16   22 1
    39   16   17 1
    40   17   18 1
    41   17   24 1
    42   18   19 1
    43   18   45 1
    44   18   46 1
    45   19   20 1
    46   19   47 1
    47   19   48 1
    48   20   21 1
    49   20   22 1
    50   20   23 1
    51   22   49 1
    52   22   50 1
    53   23   51 1
    54   24   25 2
    55   24   52 1
    56   25   53 1
    57   25   54 1
@<TRIPOS>MOLECULE
CHEMBL381566__5
   54    57     0     0     0
SMALL
USER_CHARGES

@<TRIPOS>ATOM
      1 C1          0.6709    1.7440    0.7777 C.3       1 <0>        -0.1273
      2 C2          0.6806    0.2198    0.6443 C.3       1 <0>        -0.0273
      3 C3         -0.6833   -0.3229    0.2084 C.3       1 <0>        -0.1065
      4 C4         -1.6958   -0.1959    1.3422 C.3       1 <0>        -0.1135
      5 C5         -1.2284   -1.0554    2.5232 C.3       1 <0>        -0.0625
      6 C6          0.1071   -0.5127    3.0241 C.3       1 <0>        -0.0660
      7 C7          1.1429   -0.4676    1.9401 C.3       1 <0>        -0.0727
      8 C8          1.5552   -1.8760    1.4729 C.3       1 <0>        -0.1181
      9 C9          2.2546   -1.6157    0.1187 C.3       1 <0>        -0.1465
     10 C10         1.7207   -0.2673   -0.3998 C.3       1 <0>         0.2416
     11 C11         1.0749   -0.4492   -1.7100 C.1       1 <0>        -0.2070
     12 C12         0.5598   -0.5944   -2.7549 C.1       1 <0>        -0.1846
     13 O1          2.7891    0.6758   -0.5052 O.3       1 <0>        -0.5418
     14 C13         0.5944   -1.4003    4.1757 C.3       1 <0>        -0.0857
     15 C14        -0.4647   -1.4609    5.2372 C.2       1 <0>        -0.1519
     16 C15        -1.7295   -1.2940    4.9855 C.2       1 <0>        -0.1028
     17 C16        -2.2797   -1.0093    3.6197 C.3       1 <0>         0.0166
     18 C17        -3.4072   -1.9983    3.3106 C.3       1 <0>        -0.0999
     19 C18        -4.4512   -1.9404    4.4279 C.3       1 <0>        -0.1130
     20 C19        -3.8183   -2.3764    5.7502 C.3       1 <0>         0.1099
     21 H1         -3.3913   -3.3729    5.6373 H         1 <0>         0.0535
     22 C20        -2.7137   -1.3882    6.1395 C.3       1 <0>        -0.1229
     23 O2         -4.8175   -2.3994    6.7715 O.3       1 <0>        -0.5682
     24 C21        -2.8811    0.3725    3.6354 C.2       1 <0>        -0.1386
     25 C22        -2.6772    1.1639    4.6592 C.2       1 <0>        -0.1973
     26 H2          1.6765    2.0948    1.0096 H         1 <0>         0.0671
     27 H3          0.3382    2.1887   -0.1602 H         1 <0>         0.0532
     28 H4         -0.0090    2.0342    1.5787 H         1 <0>         0.0569
     29 H5         -1.0364    0.2422   -0.6542 H         1 <0>         0.0640
     30 H6         -0.5815   -1.3726   -0.0671 H         1 <0>         0.0644
     31 H7         -1.7659    0.8461    1.6542 H         1 <0>         0.0716
     32 H8         -2.6712   -0.5432    1.0013 H         1 <0>         0.0651
     33 H9         -1.0958   -2.0853    2.1916 H         1 <0>         0.0732
     34 H10        -0.0411    0.4977    3.4053 H         1 <0>         0.0730
     35 H11         2.0292    0.0426    2.3174 H         1 <0>         0.0768
     36 H12         2.2483   -2.3282    2.1823 H         1 <0>         0.0725
     37 H13         0.6774   -2.5076    1.3365 H         1 <0>         0.0712
     38 H14         3.3339   -1.5604    0.2604 H         1 <0>         0.0802
     39 H15         2.0103   -2.4101   -0.5865 H         1 <0>         0.0716
     40 H16         0.0991   -0.7242   -3.6895 H         1 <0>         0.2178
     41 H17         3.4719    0.4270   -1.1431 H         1 <0>         0.3779
     42 H18         0.7930   -2.4048    3.8021 H         1 <0>         0.0765
     43 H19         1.5081   -0.9809    4.5969 H         1 <0>         0.0711
     44 H20        -0.1627   -1.6515    6.2565 H         1 <0>         0.1052
     45 H21        -3.8742   -1.7328    2.3622 H         1 <0>         0.0745
     46 H22        -2.9990   -3.0069    3.2460 H         1 <0>         0.0664
     47 H23        -4.8238   -0.9205    4.5232 H         1 <0>         0.0735
     48 H24        -5.2791   -2.6066    4.1852 H         1 <0>         0.0695
     49 H25        -2.2001   -1.7450    7.0322 H         1 <0>         0.0678
     50 H26        -3.1485   -0.4074    6.3325 H         1 <0>         0.0873
     51 H27        -4.4866   -2.6678    7.6396 H         1 <0>         0.3776
     52 H28        -3.4800    0.7102    2.8026 H         1 <0>         0.1109
     53 H29        -2.0007    0.8653    5.4463 H         1 <0>         0.1019
     54 H30        -3.1857    2.1150    4.7161 H         1 <0>         0.0939
@<TRIPOS>BOND
     1    1    2 1
     2    1   26 1
     3    1   27 1
     4    1   28 1
     5    2    7 1
     6    2   10 1
     7    2    3 1
     8    3    4 1
     9    3   29 1
    10    3   30 1
    11    4    5 1
    12    4   31 1
    13    4   32 1
    14    5   17 1
    15    5    6 1
    16    5   33 1
    17    6    7 1
    18    6   14 1
    19    6   34 1
    20    7    8 1
    21    7   35 1
    22    8    9 1
    23    8   36 1
    24    8   37 1
    25    9   10 1
    26    9   38 1
    27    9   39 1
    28   10   11 1
    29   10   13 1
    30   11   12 3
    31   12   40 1
    32   13   41 1
    33   14   15 1
    34   14   42 1
    35   14   43 1
    36   15   16 2
    37   15   44 1
    38   16   22 1
    39   16   17 1
    40   17   18 1
    41   17   24 1
    42   18   19 1
    43   18   45 1
    44   18   46 1
    45   19   20 1
    46   19   47 1
    47   19   48 1
    48   20   21 1
    49   20   22 1
    50   20   23 1
    51   22   49 1
    52   22   50 1
    53   23   51 1
    54   24   25 2
    55   24   52 1
    56   25   53 1
    57   25   54 1
@<TRIPOS>MOLECULE
CHEMBL381566__6
   54    57     0     0     0
SMALL
USER_CHARGES

@<TRIPOS>ATOM
      1 C1         -0.2262   -0.5107   -0.6511 C.3       1 <0>        -0.1427
      2 C2         -0.2309   -1.8891    0.0206 C.3       1 <0>        -0.0299
      3 C3         -1.6422   -2.2822    0.3682 C.3       1 <0>        -0.1041
      4 C4         -2.1569   -1.3493    1.4903 C.3       1 <0>        -0.1046
      5 C5         -1.2847   -1.4816    2.7238 C.3       1 <0>        -0.0636
      6 C6          0.1803   -1.1183    2.4233 C.3       1 <0>        -0.0560
      7 C7          0.6593   -1.9508    1.2739 C.3       1 <0>        -0.0785
      8 C8          2.0446   -1.6625    0.6813 C.3       1 <0>        -0.1132
      9 C9          2.0318   -2.5285   -0.6128 C.3       1 <0>        -0.1440
     10 C10         0.5412   -2.8146   -0.9370 C.3       1 <0>         0.2394
     11 C11         0.2215   -4.2262   -0.7087 C.1       1 <0>        -0.2063
     12 C12        -0.0346   -5.3572   -0.5258 C.1       1 <0>        -0.1798
     13 O1          0.2516   -2.4454   -2.2885 O.3       1 <0>        -0.5398
     14 C13         0.2932    0.3866    2.2156 C.3       1 <0>        -0.0847
     15 C14        -0.1971    1.0735    3.4669 C.2       1 <0>        -0.1614
     16 C15        -1.1246    0.5638    4.2142 C.2       1 <0>        -0.0969
     17 C16        -1.7880   -0.7638    3.9541 C.3       1 <0>         0.0215
     18 C17        -1.5812   -1.6457    5.1953 C.3       1 <0>        -0.1013
     19 C18        -0.7696   -0.8926    6.2454 C.3       1 <0>        -0.1079
     20 C19        -1.4631    0.4042    6.6534 C.3       1 <0>         0.1115
     21 H1         -0.8768    0.8965    7.4313 H         1 <0>         0.0509
     22 C20        -1.5810    1.3356    5.4418 C.3       1 <0>        -0.1302
     23 O2         -2.7641    0.1139    7.1673 O.3       1 <0>        -0.5625
     24 C21        -3.2715   -0.5186    3.8365 C.2       1 <0>        -0.1256
     25 C22        -3.7252    0.7035    3.7070 C.2       1 <0>        -0.2017
     26 H2          0.7822   -0.0976   -0.6256 H         1 <0>         0.0585
     27 H3         -0.5521   -0.6100   -1.6865 H         1 <0>         0.0738
     28 H4         -0.9052    0.1553   -0.1187 H         1 <0>         0.0583
     29 H5         -2.2886   -2.1793   -0.5061 H         1 <0>         0.0665
     30 H6         -1.6886   -3.3093    0.7343 H         1 <0>         0.0615
     31 H7         -2.1767   -0.3241    1.1426 H         1 <0>         0.0681
     32 H8         -3.1785   -1.6835    1.6996 H         1 <0>         0.0625
     33 H9         -1.2786   -2.5610    2.9771 H         1 <0>         0.0615
     34 H10         0.7809   -1.3821    3.3259 H         1 <0>         0.0691
     35 H11         0.6827   -3.0130    1.6306 H         1 <0>         0.0665
     36 H12         2.1786   -0.6109    0.4562 H         1 <0>         0.0783
     37 H13         2.8280   -2.0120    1.3579 H         1 <0>         0.0670
     38 H14         2.4957   -1.9839   -1.4327 H         1 <0>         0.0821
     39 H15         2.5554   -3.4667   -0.4375 H         1 <0>         0.0698
     40 H16        -0.2637   -6.3688   -0.3622 H         1 <0>         0.2185
     41 H17         0.7043   -2.9867   -2.9497 H         1 <0>         0.3756
     42 H18         1.3262    0.6712    2.0347 H         1 <0>         0.0706
     43 H19        -0.3459    0.7348    1.4088 H         1 <0>         0.0826
     44 H20         0.2405    2.0160    3.7366 H         1 <0>         0.1047
     45 H21        -2.5554   -1.9127    5.6016 H         1 <0>         0.0753
     46 H22        -1.0478   -2.5487    4.9027 H         1 <0>         0.0640
     47 H23        -0.6541   -1.5255    7.1281 H         1 <0>         0.0654
     48 H24         0.2185   -0.6619    5.8465 H         1 <0>         0.0755
     49 H25        -0.9319    2.2052    5.5860 H         1 <0>         0.0682
     50 H26        -2.6083    1.6748    5.3221 H         1 <0>         0.0928
     51 H27        -3.2604    0.8956    7.4458 H         1 <0>         0.3753
     52 H28        -3.9598   -1.3506    3.8589 H         1 <0>         0.1059
     53 H29        -3.0355    1.5251    3.5820 H         1 <0>         0.1015
     54 H30        -4.7889    0.8893    3.7253 H         1 <0>         0.0924
@<TRIPOS>BOND
     1    1    2 1
     2    1   26 1
     3    1   27 1
     4    1   28 1
     5    2    7 1
     6    2   10 1
     7    2    3 1
     8    3    4 1
     9    3   29 1
    10    3   30 1
    11    4    5 1
    12    4   31 1
    13    4   32 1
    14    5   17 1
    15    5    6 1
    16    5   33 1
    17    6    7 1
    18    6   14 1
    19    6   34 1
    20    7    8 1
    21    7   35 1
    22    8    9 1
    23    8   36 1
    24    8   37 1
    25    9   10 1
    26    9   38 1
    27    9   39 1
    28   10   11 1
    29   10   13 1
    30   11   12 3
    31   12   40 1
    32   13   41 1
    33   14   15 1
    34   14   42 1
    35   14   43 1
    36   15   16 2
    37   15   44 1
    38   16   22 1
    39   16   17 1
    40   17   18 1
    41   17   24 1
    42   18   19 1
    43   18   45 1
    44   18   46 1
    45   19   20 1
    46   19   47 1
    47   19   48 1
    48   20   21 1
    49   20   22 1
    50   20   23 1
    51   22   49 1
    52   22   50 1
    53   23   51 1
    54   24   25 2
    55   24   52 1
    56   25   53 1
    57   25   54 1
@<TRIPOS>MOLECULE
CHEMBL381566__7
   54    57     0     0     0
SMALL
USER_CHARGES

@<TRIPOS>ATOM
      1 C1          0.3074    0.2867   -0.4683 C.3       1 <0>        -0.1309
      2 C2          0.2531   -1.1822   -0.0437 C.3       1 <0>        -0.0269
      3 C3         -1.1870   -1.6921    0.0357 C.3       1 <0>        -0.1048
      4 C4         -1.9022   -1.1414    1.2676 C.3       1 <0>        -0.1140
      5 C5         -1.1521   -1.6248    2.5112 C.3       1 <0>        -0.0671
      6 C6          0.2429   -0.9926    2.4974 C.3       1 <0>        -0.0672
      7 C7          1.0010   -1.4188    1.2805 C.3       1 <0>        -0.0749
      8 C8          1.2645   -2.9355    1.2768 C.3       1 <0>        -0.1206
      9 C9          1.6327   -3.2310   -0.1957 C.3       1 <0>        -0.1457
     10 C10         1.0165   -2.0984   -1.0384 C.3       1 <0>         0.2413
     11 C11         0.0831   -2.6565   -2.0304 C.1       1 <0>        -0.2073
     12 C12        -0.6614   -3.1016   -2.8215 C.1       1 <0>        -0.1844
     13 O1          2.0475   -1.3584   -1.6953 O.3       1 <0>        -0.5417
     14 C13         0.0759    0.5324    2.4553 C.3       1 <0>        -0.1032
     15 C14        -0.8389    0.9763    3.5572 C.2       1 <0>        -0.1578
     16 C15        -1.6985    0.2019    4.1378 C.2       1 <0>        -0.0974
     17 C16        -1.8969   -1.2464    3.7769 C.3       1 <0>         0.0172
     18 C17        -1.4718   -2.1200    4.9547 C.3       1 <0>        -0.0943
     19 C18        -1.6499   -1.3568    6.2663 C.3       1 <0>        -0.1090
     20 C19        -2.8631   -0.4309    6.2044 C.3       1 <0>         0.1087
     21 H1         -3.0814   -0.0509    7.2024 H         1 <0>         0.0506
     22 C20        -2.5635    0.7449    5.2631 C.3       1 <0>        -0.1230
     23 O2         -3.9918   -1.1570    5.7138 O.3       1 <0>        -0.5498
     24 C21        -3.3681   -1.4762    3.5450 C.2       1 <0>        -0.0661
     25 C22        -4.1590   -0.4611    3.3002 C.2       1 <0>        -0.2376
     26 H2          1.2695    0.7121   -0.1829 H         1 <0>         0.0626
     27 H3          0.1853    0.3572   -1.5492 H         1 <0>         0.0573
     28 H4         -0.4940    0.8372    0.0245 H         1 <0>         0.0632
     29 H5         -1.7259   -1.3807   -0.8591 H         1 <0>         0.0624
     30 H6         -1.1780   -2.7810    0.0850 H         1 <0>         0.0631
     31 H7         -1.9006   -0.0518    1.2374 H         1 <0>         0.0693
     32 H8         -2.9285   -1.5077    1.2915 H         1 <0>         0.0705
     33 H9         -1.0443   -2.7086    2.4675 H         1 <0>         0.0734
     34 H10         0.7860   -1.2847    3.3962 H         1 <0>         0.0749
     35 H11         1.9591   -0.8995    1.2545 H         1 <0>         0.0779
     36 H12         2.0954   -3.1827    1.9377 H         1 <0>         0.0713
     37 H13         0.3668   -3.4822    1.5655 H         1 <0>         0.0729
     38 H14         2.7161   -3.2386   -0.3155 H         1 <0>         0.0799
     39 H15         1.2162   -4.1914   -0.4994 H         1 <0>         0.0714
     40 H16        -1.3272   -3.4997   -3.5291 H         1 <0>         0.2177
     41 H17         2.5605   -1.8771   -2.3300 H         1 <0>         0.3779
     42 H18         1.0493    1.0068    2.5797 H         1 <0>         0.0672
     43 H19        -0.3473    0.8238    1.4940 H         1 <0>         0.0960
     44 H20        -0.7772    2.0032    3.8858 H         1 <0>         0.0996
     45 H21        -2.0838   -3.0217    4.9753 H         1 <0>         0.0678
     46 H22        -0.4245   -2.3989    4.8384 H         1 <0>         0.0617
     47 H23        -1.7857   -2.0700    7.0793 H         1 <0>         0.0649
     48 H24        -0.7564   -0.7629    6.4585 H         1 <0>         0.0719
     49 H25        -2.0259    1.5248    5.8024 H         1 <0>         0.0715
     50 H26        -3.4932    1.1444    4.8580 H         1 <0>         0.0846
     51 H27        -4.8001   -0.6302    5.6480 H         1 <0>         0.3710
     52 H28        -3.7703   -2.4779    3.5806 H         1 <0>         0.1020
     53 H29        -3.7441    0.5273    3.1685 H         1 <0>         0.0940
     54 H30        -5.2261   -0.6125    3.2302 H         1 <0>         0.0880
@<TRIPOS>BOND
     1    1    2 1
     2    1   26 1
     3    1   27 1
     4    1   28 1
     5    2    7 1
     6    2   10 1
     7    2    3 1
     8    3    4 1
     9    3   29 1
    10    3   30 1
    11    4    5 1
    12    4   31 1
    13    4   32 1
    14    5   17 1
    15    5    6 1
    16    5   33 1
    17    6    7 1
    18    6   14 1
    19    6   34 1
    20    7    8 1
    21    7   35 1
    22    8    9 1
    23    8   36 1
    24    8   37 1
    25    9   10 1
    26    9   38 1
    27    9   39 1
    28   10   11 1
    29   10   13 1
    30   11   12 3
    31   12   40 1
    32   13   41 1
    33   14   15 1
    34   14   42 1
    35   14   43 1
    36   15   16 2
    37   15   44 1
    38   16   22 1
    39   16   17 1
    40   17   18 1
    41   17   24 1
    42   18   19 1
    43   18   45 1
    44   18   46 1
    45   19   20 1
    46   19   47 1
    47   19   48 1
    48   20   21 1
    49   20   22 1
    50   20   23 1
    51   22   49 1
    52   22   50 1
    53   23   51 1
    54   24   25 2
    55   24   52 1
    56   25   53 1
    57   25   54 1
@<TRIPOS>MOLECULE
CHEMBL93326
   38    40     0     0     0
SMALL
USER_CHARGES

@<TRIPOS>ATOM
      1 C1          0.0561    1.2949   -0.3616 C.ar      1 <0>        -0.0895
      2 C2          1.2511    1.9880   -0.3610 C.ar      1 <0>        -0.1399
      3 C3          2.4207    1.3514    0.0283 C.ar      1 <0>         0.1110
      4 C4          2.3869    0.0199    0.4162 C.ar      1 <0>        -0.1389
      5 C5          1.1893   -0.6688    0.4139 C.ar      1 <0>        -0.0645
      6 C6          0.0251   -0.0321    0.0254 C.ar      1 <0>        -0.0774
      7 C7         -1.2800   -0.7856    0.0242 C.3       1 <0>         0.2357
      8 H1         -2.0930   -0.1026   -0.2218 H         1 <0>         0.1047
      9 C8         -1.5185   -1.3783    1.3905 C.ar      1 <0>        -0.1041
     10 C9         -1.3598   -0.5477    2.4923 C.ar      1 <0>        -0.0799
     11 C10        -1.5730   -1.0258    3.7676 C.ar      1 <0>        -0.1435
     12 C11        -1.9509   -2.3483    3.9510 C.ar      1 <0>         0.1165
     13 C12        -2.1049   -3.1762    2.8526 C.ar      1 <0>        -0.1452
     14 C13        -1.8837   -2.6941    1.5689 C.ar      1 <0>        -0.0504
     15 C14        -2.0439   -3.6600    0.4244 C.3       1 <0>        -0.0992
     16 C15        -2.2461   -2.9134   -0.8931 C.3       1 <0>         0.0944
     17 N1         -1.2237   -1.8575   -0.9754 N.am      1 <0>        -0.5871
     18 C16        -0.2744   -1.8747   -1.9319 C.2       1 <0>         0.4833
     19 O1          0.5986   -1.0328   -1.9351 O.2       1 <0>        -0.4435
     20 C17        -0.2976   -2.9401   -2.9975 C.3       1 <0>         0.4488
     21 F1          0.7798   -2.7508   -3.8697 F         1 <0>        -0.1501
     22 F2         -0.1971   -4.2006   -2.3990 F         1 <0>        -0.1678
     23 F3         -1.4969   -2.8579   -3.7131 F         1 <0>        -0.1664
     24 O2         -2.1692   -2.8285    5.2034 O.3       1 <0>        -0.4984
     25 O3          3.5976    2.0310    0.0293 O.3       1 <0>        -0.4998
     26 H2         -0.8553    1.7913   -0.6603 H         1 <0>         0.1242
     27 H3          1.2749    3.0245   -0.6638 H         1 <0>         0.1280
     28 H4          3.2960   -0.4780    0.7194 H         1 <0>         0.1254
     29 H5          1.1624   -1.7054    0.7157 H         1 <0>         0.1146
     30 H6         -1.0664    0.4817    2.3487 H         1 <0>         0.1307
     31 H7         -1.4462   -0.3744    4.6197 H         1 <0>         0.1329
     32 H8         -2.3995   -4.2055    2.9948 H         1 <0>         0.1319
     33 H9         -1.1508   -4.2806    0.3514 H         1 <0>         0.0892
     34 H10        -2.9081   -4.2974    0.6116 H         1 <0>         0.0986
     35 H11        -2.1320   -3.6034   -1.7292 H         1 <0>         0.0967
     36 H12        -3.2404   -2.4673   -0.9154 H         1 <0>         0.0953
     37 H13        -3.0820   -2.7327    5.5078 H         1 <0>         0.3938
     38 H14         3.7946    2.4751    0.8654 H         1 <0>         0.3896
@<TRIPOS>BOND
     1    1    6 ar
     2    1    2 ar
     3    1   26 1
     4    2    3 ar
     5    2   27 1
     6    3    4 ar
     7    3   25 1
     8    4    5 ar
     9    4   28 1
    10    5    6 ar
    11    5   29 1
    12    6    7 1
    13    7    8 1
    14    7   17 1
    15    7    9 1
    16    9   14 ar
    17    9   10 ar
    18   10   11 ar
    19   10   30 1
    20   11   12 ar
    21   11   31 1
    22   12   13 ar
    23   12   24 1
    24   13   14 ar
    25   13   32 1
    26   14   15 1
    27   15   16 1
    28   15   33 1
    29   15   34 1
    30   16   17 1
    31   16   35 1
    32   16   36 1
    33   17   18 am
    34   18   19 2
    35   18   20 1
    36   20   21 1
    37   20   22 1
    38   20   23 1
    39   24   37 1
    40   25   38 1
@<TRIPOS>MOLECULE
CHEMBL480420
   28    29     0     0     0
SMALL
USER_CHARGES

@<TRIPOS>ATOM
      1 C1         -0.0168    1.3895    0.0097 C.ar      1 <0>        -0.0931
      2 C2          1.1689    2.0939    0.0021 C.ar      1 <0>        -0.1412
      3 C3          2.3804    1.4162   -0.0135 C.ar      1 <0>         0.1079
      4 C4          2.4024    0.0282   -0.0212 C.ar      1 <0>        -0.1411
      5 C5          1.2199   -0.6816   -0.0137 C.ar      1 <0>        -0.0941
      6 C6          0.0021   -0.0041    0.0020 C.ar      1 <0>        -0.0540
      7 C7         -1.2717   -0.7648    0.0106 C.ar      1 <0>        -0.0556
      8 C8         -2.4903   -0.0846    0.0206 C.ar      1 <0>        -0.0763
      9 C9         -3.6777   -0.7861    0.0290 C.ar      1 <0>        -0.1461
     10 C10        -3.6692   -2.1729    0.0277 C.ar      1 <0>         0.1470
     11 C11        -2.4506   -2.8655    0.0172 C.ar      1 <0>        -0.0833
     12 C12        -1.2509   -2.1548    0.0029 C.ar      1 <0>        -0.0638
     13 C13        -2.4374   -4.3404    0.0162 C.2       1 <0>         0.1349
     14 N1         -3.5522   -4.9974    0.0250 N.2       1 <0>        -0.3051
     15 O1         -3.5395   -6.4134    0.0240 O.3       1 <0>        -0.4145
     16 O2         -4.8404   -2.8592    0.0369 O.3       1 <0>        -0.4778
     17 O3          3.5470    2.1130   -0.0218 O.3       1 <0>        -0.4995
     18 H1         -0.9590    1.9173    0.0260 H         1 <0>         0.1316
     19 H2          1.1549    3.1738    0.0081 H         1 <0>         0.1323
     20 H3          3.3464   -0.4963   -0.0334 H         1 <0>         0.1323
     21 H4          1.2377   -1.7615   -0.0204 H         1 <0>         0.1312
     22 H5         -2.5035    0.9953    0.0221 H         1 <0>         0.1347
     23 H6         -4.6173   -0.2537    0.0371 H         1 <0>         0.1378
     24 H7         -0.3087   -2.6825   -0.0096 H         1 <0>         0.1375
     25 H8         -1.4973   -4.8720    0.0081 H         1 <0>         0.1249
     26 H9         -4.4193   -6.8146    0.0310 H         1 <0>         0.4079
     27 H10        -5.1872   -3.0572   -0.8438 H         1 <0>         0.3927
     28 H11         3.8936    2.3102    0.8591 H         1 <0>         0.3929
@<TRIPOS>BOND
     1    1    6 ar
     2    1    2 ar
     3    1   18 1
     4    2    3 ar
     5    2   19 1
     6    3    4 ar
     7    3   17 1
     8    4    5 ar
     9    4   20 1
    10    5    6 ar
    11    5   21 1
    12    6    7 1
    13    7   12 ar
    14    7    8 ar
    15    8    9 ar
    16    8   22 1
    17    9   10 ar
    18    9   23 1
    19   10   11 ar
    20   10   16 1
    21   11   12 ar
    22   11   13 1
    23   12   24 1
    24   13   14 2
    25   13   25 1
    26   14   15 1
    27   15   26 1
    28   16   27 1
    29   17   28 1
@<TRIPOS>MOLECULE
CHEMBL203061
   38    40     0     0     0
SMALL
USER_CHARGES

@<TRIPOS>ATOM
      1 C1          1.5681    2.0262   -1.9344 C.ar      1 <0>        -0.1352
      2 C2          2.9171    2.2770   -1.7620 C.ar      1 <0>        -0.0946
      3 C3          3.7106    1.3655   -1.0938 C.ar      1 <0>        -0.1328
      4 C4          3.1522    0.1954   -0.5946 C.ar      1 <0>         0.1541
      5 C5          1.7967   -0.0534   -0.7697 C.ar      1 <0>        -0.1511
      6 C6          1.0090    0.8625   -1.4388 C.ar      1 <0>        -0.0879
      7 N1          3.9522   -0.7293    0.0815 N.pl3     1 <0>        -0.8833
      8 C7          5.1198   -0.3065    0.7218 C.ar      1 <0>         0.1140
      9 C8          6.3429   -0.8723    0.3843 C.ar      1 <0>        -0.1082
     10 C9          7.4950   -0.4521    1.0193 C.ar      1 <0>        -0.1059
     11 C10         7.4321    0.5304    1.9904 C.ar      1 <0>        -0.1106
     12 C11         6.2162    1.0955    2.3291 C.ar      1 <0>        -0.1111
     13 C12         5.0611    0.6847    1.6935 C.ar      1 <0>        -0.1073
     14 S1          3.5165   -2.3263    0.1238 S.o2      1 <0>         2.6803
     15 O1          2.5033   -2.4971   -0.8577 O.2       1 <0>        -0.9351
     16 O2          4.7230   -3.0770    0.1119 O.2       1 <0>        -0.9340
     17 C13         2.7575   -2.6180    1.6870 C.ar      1 <0>        -0.6885
     18 C14         3.5413   -2.8411    2.8039 C.ar      1 <0>         0.0038
     19 C15         2.9487   -3.0705    4.0305 C.ar      1 <0>        -0.1648
     20 C16         1.5658   -3.0763    4.1412 C.ar      1 <0>         0.1708
     21 C17         0.7815   -2.8517    3.0191 C.ar      1 <0>        -0.1646
     22 C18         1.3791   -2.6177    1.7957 C.ar      1 <0>        -0.0022
     23 O3          0.9804   -3.3021    5.3467 O.3       1 <0>        -0.4960
     24 H1          0.9489    2.7429   -2.4535 H         1 <0>         0.1263
     25 H2          3.3506    3.1867   -2.1506 H         1 <0>         0.1284
     26 H3          4.7642    1.5618   -0.9598 H         1 <0>         0.1282
     27 H4          1.3595   -0.9622   -0.3832 H         1 <0>         0.1379
     28 H5         -0.0449    0.6700   -1.5749 H         1 <0>         0.1309
     29 H6          6.3926   -1.6402   -0.3735 H         1 <0>         0.1414
     30 H7          8.4461   -0.8916    0.7574 H         1 <0>         0.1330
     31 H8          8.3346    0.8570    2.4856 H         1 <0>         0.1288
     32 H9          6.1706    1.8624    3.0882 H         1 <0>         0.1299
     33 H10         4.1125    1.1301    1.9548 H         1 <0>         0.1281
     34 H11         4.6178   -2.8365    2.7173 H         1 <0>         0.1427
     35 H12         3.5614   -3.2454    4.9025 H         1 <0>         0.1424
     36 H13        -0.2952   -2.8557    3.1027 H         1 <0>         0.1433
     37 H14         0.7690   -2.4384    0.9228 H         1 <0>         0.1471
     38 H15         0.8207   -2.5001    5.8628 H         1 <0>         0.4020
@<TRIPOS>BOND
     1    1    6 ar
     2    1    2 ar
     3    1   24 1
     4    2    3 ar
     5    2   25 1
     6    3    4 ar
     7    3   26 1
     8    4    5 ar
     9    4    7 1
    10    5    6 ar
    11    5   27 1
    12    6   28 1
    13    7    8 1
    14    7   14 1
    15    8   13 ar
    16    8    9 ar
    17    9   10 ar
    18    9   29 1
    19   10   11 ar
    20   10   30 1
    21   11   12 ar
    22   11   31 1
    23   12   13 ar
    24   12   32 1
    25   13   33 1
    26   14   15 2
    27   14   16 2
    28   14   17 1
    29   17   22 ar
    30   17   18 ar
    31   18   19 ar
    32   18   34 1
    33   19   20 ar
    34   19   35 1
    35   20   21 ar
    36   20   23 1
    37   21   22 ar
    38   21   36 1
    39   22   37 1
    40   23   38 1
@<TRIPOS>MOLECULE
CHEMBL535158
   64    69     0     0     0
SMALL
USER_CHARGES

@<TRIPOS>ATOM
      1 C1          0.0438    1.0466    0.0482 C.ar      1 <0>        -0.0592
      2 C2          1.1882    1.8192    0.0061 C.ar      1 <0>        -0.1358
      3 C3          2.4352    1.2115    0.0270 C.ar      1 <0>         0.1210
      4 C4          2.5294   -0.1712    0.0902 C.ar      1 <0>        -0.1958
      5 C5          1.3820   -0.9394    0.1320 C.ar      1 <0>        -0.0669
      6 C6          0.1404   -0.3313    0.1110 C.ar      1 <0>        -0.1340
      7 C7         -1.1097   -1.1716    0.1572 C.3       1 <0>         0.1833
      8 H1         -1.9312   -0.6190   -0.2986 H         1 <0>         0.1410
      9 C8         -1.4511   -1.4750    1.5917 C.ar      1 <0>        -0.0938
     10 C9         -2.2962   -0.6333    2.3268 C.ar      1 <0>        -0.0376
     11 C10        -2.8793    0.5058    1.7426 C.ar      1 <0>        -0.1004
     12 C11        -3.6944    1.3025    2.4840 C.ar      1 <0>        -0.1245
     13 C12        -3.9626    1.0063    3.8241 C.ar      1 <0>         0.1182
     14 C13        -3.4134   -0.0915    4.4230 C.ar      1 <0>        -0.1311
     15 C14        -2.5684   -0.9369    3.6858 C.ar      1 <0>        -0.0303
     16 C15        -1.9897   -2.0757    4.2760 C.ar      1 <0>        -0.0886
     17 C16        -1.1842   -2.8877    3.5417 C.ar      1 <0>        -0.0970
     18 C17        -0.9208   -2.6038    2.1952 C.ar      1 <0>        -0.0286
     19 C18        -0.0944   -3.5122    1.3648 C.ar      1 <0>        -0.0583
     20 C19         0.6709   -4.5209    1.9368 C.ar      1 <0>        -0.1194
     21 C20         1.4423   -5.3366    1.1284 C.ar      1 <0>         0.1134
     22 C21         1.4530   -5.1472   -0.2445 C.ar      1 <0>        -0.1588
     23 C22         0.6876   -4.1485   -0.8211 C.ar      1 <0>         0.1111
     24 C23        -0.0974   -3.3313   -0.0227 C.ar      1 <0>         0.0846
     25 O1         -0.8925   -2.3783   -0.5720 O.3       1 <0>        -0.2830
     26 F1          0.7057   -3.9703   -2.1602 F         1 <0>        -0.1155
     27 F2          2.1873   -6.3201    1.6787 F         1 <0>        -0.1233
     28 O2         -4.7802    1.8219    4.5402 O.3       1 <0>        -0.4985
     29 O3          3.5625    1.9693   -0.0147 O.3       1 <0>        -0.3265
     30 C24         4.8117    1.2758    0.0102 C.3       1 <0>         0.0244
     31 C25         5.9580    2.2878   -0.0434 C.3       1 <0>        -0.0005
     32 N1          5.9254    3.1288    1.1606 N.4       1 <0>        -0.3842
     33 C26         6.9247    4.1968    1.0368 C.3       1 <0>        -0.0070
     34 C27         6.8396    5.1234    2.2516 C.3       1 <0>        -0.1466
     35 C28         7.1096    4.3145    3.5236 C.3       1 <0>        -0.1389
     36 C29         6.1082    3.1588    3.6040 C.3       1 <0>        -0.1453
     37 C30         6.2203    2.3050    2.3391 C.3       1 <0>        -0.0134
     38 H2         -0.9271    1.5194    0.0364 H         1 <0>         0.1387
     39 H3          1.1123    2.8954   -0.0434 H         1 <0>         0.1382
     40 H4          3.4990   -0.6467    0.1062 H         1 <0>         0.1299
     41 H5          1.4548   -2.0158    0.1812 H         1 <0>         0.1293
     42 H6         -2.6801    0.7468    0.7089 H         1 <0>         0.1317
     43 H7         -4.1403    2.1761    2.0319 H         1 <0>         0.1363
     44 H8         -3.6280   -0.3085    5.4590 H         1 <0>         0.1396
     45 H9         -2.1855   -2.3044    5.3131 H         1 <0>         0.1390
     46 H10        -0.7432   -3.7603    4.0005 H         1 <0>         0.1355
     47 H11         0.6640   -4.6671    3.0068 H         1 <0>         0.1534
     48 H12         2.0632   -5.7832   -0.8688 H         1 <0>         0.1614
     49 H13        -5.7144    1.5751    4.5012 H         1 <0>         0.3977
     50 H14         4.8850    0.6921    0.9278 H         1 <0>         0.0865
     51 H15         4.8746    0.6096   -0.8502 H         1 <0>         0.1103
     52 H16         6.9090    1.7574   -0.0905 H         1 <0>         0.1495
     53 H17         5.8477    2.9152   -0.9279 H         1 <0>         0.1432
     54 H18         7.9209    3.7574    0.9846 H         1 <0>         0.1293
     55 H19         6.7332    4.7695    0.1294 H         1 <0>         0.1312
     56 H20         7.5835    5.9146    2.1586 H         1 <0>         0.1133
     57 H21         5.8439    5.5635    2.3046 H         1 <0>         0.0880
     58 H22         8.1239    3.9165    3.4940 H         1 <0>         0.0822
     59 H23         6.9946    4.9579    4.3959 H         1 <0>         0.0948
     60 H24         6.3292    2.5457    4.4777 H         1 <0>         0.1123
     61 H25         5.0972    3.5581    3.6851 H         1 <0>         0.0878
     62 H26         5.5088    1.4810    2.3932 H         1 <0>         0.1268
     63 H27         7.2315    1.9059    2.2591 H         1 <0>         0.1305
     64 H28         5.0086    3.5385    1.2588 H         1 <0>         0.4293
@<TRIPOS>BOND
     1    1    6 ar
     2    1    2 ar
     3    1   38 1
     4    2    3 ar
     5    2   39 1
     6    3    4 ar
     7    3   29 1
     8    4    5 ar
     9    4   40 1
    10    5    6 ar
    11    5   41 1
    12    6    7 1
    13    7    8 1
    14    7   25 1
    15    7    9 1
    16    9   18 ar
    17    9   10 ar
    18   10   15 ar
    19   10   11 ar
    20   11   12 ar
    21   11   42 1
    22   12   13 ar
    23   12   43 1
    24   13   14 ar
    25   13   28 1
    26   14   15 ar
    27   14   44 1
    28   15   16 ar
    29   16   17 ar
    30   16   45 1
    31   17   18 ar
    32   17   46 1
    33   18   19 1
    34   19   24 ar
    35   19   20 ar
    36   20   21 ar
    37   20   47 1
    38   21   22 ar
    39   21   27 1
    40   22   23 ar
    41   22   48 1
    42   23   24 ar
    43   23   26 1
    44   24   25 1
    45   28   49 1
    46   29   30 1
    47   30   31 1
    48   30   50 1
    49   30   51 1
    50   31   32 1
    51   31   52 1
    52   31   53 1
    53   32   37 1
    54   32   33 1
    55   32   64 1
    56   33   34 1
    57   33   54 1
    58   33   55 1
    59   34   35 1
    60   34   56 1
    61   34   57 1
    62   35   36 1
    63   35   58 1
    64   35   59 1
    65   36   37 1
    66   36   60 1
    67   36   61 1
    68   37   62 1
    69   37   63 1
@<TRIPOS>MOLECULE
CHEMBL206547
   38    40     0     0     0
SMALL
USER_CHARGES

@<TRIPOS>ATOM
      1 C1         -0.0187    1.5258    0.0104 C.3       1 <0>        -0.1501
      2 C2          0.0021   -0.0041    0.0020 C.3       1 <0>        -0.1496
      3 C3          0.7182   -0.4975   -1.2568 C.3       1 <0>         0.1407
      4 C4          0.6123   -1.9977   -1.3350 C.ar      1 <0>        -0.1067
      5 C5         -0.4332   -2.6039   -1.9944 C.ar      1 <0>        -0.0894
      6 C6         -0.5082   -3.9899   -2.0458 C.ar      1 <0>         0.1053
      7 C7          0.4656   -4.7685   -1.4348 C.ar      1 <0>        -0.1314
      8 C8          1.5184   -4.1671   -0.7736 C.ar      1 <0>        -0.0949
      9 C9          1.5961   -2.7816   -0.7249 C.ar      1 <0>        -0.0333
     10 C10         2.7129   -2.0842   -0.0448 C.ar      1 <0>        -0.1200
     11 C11         3.5489   -2.7428    0.8464 C.ar      1 <0>        -0.0648
     12 C12         4.5753   -2.0518    1.4598 C.ar      1 <0>        -0.1646
     13 C13         4.7696   -0.7040    1.1865 C.ar      1 <0>         0.1388
     14 C14         3.9373   -0.0407    0.2962 C.ar      1 <0>        -0.1343
     15 C15         2.9083   -0.7242   -0.3252 C.ar      1 <0>         0.1484
     16 O1          2.0884   -0.1000   -1.2076 O.3       1 <0>        -0.2991
     17 C16         4.1549    1.4220    0.0063 C.3       1 <0>        -0.1049
     18 O2          5.7807   -0.0306    1.7952 O.3       1 <0>        -0.4921
     19 O3         -1.5405   -4.5872   -2.6973 O.3       1 <0>        -0.4938
     20 C17        -1.4946   -1.7653   -2.6586 C.3       1 <0>        -0.1211
     21 H1          1.0039    1.9031    0.0027 H         1 <0>         0.0616
     22 H2         -0.5459    1.8868   -0.8726 H         1 <0>         0.0578
     23 H3         -0.5289    1.8773    0.9072 H         1 <0>         0.0594
     24 H4          0.5293   -0.3651    0.8851 H         1 <0>         0.0698
     25 H5         -1.0205   -0.3814    0.0098 H         1 <0>         0.0806
     26 H6          0.2464   -0.0585   -2.1359 H         1 <0>         0.1273
     27 H7          0.3994   -5.8456   -1.4764 H         1 <0>         0.1347
     28 H8          2.2765   -4.7708   -0.2970 H         1 <0>         0.1333
     29 H9          3.3971   -3.7907    1.0593 H         1 <0>         0.1337
     30 H10         5.2280   -2.5605    2.1537 H         1 <0>         0.1351
     31 H11         4.8377    1.5278   -0.8367 H         1 <0>         0.0687
     32 H12         3.2011    1.8899   -0.2377 H         1 <0>         0.0716
     33 H13         4.5832    1.9065    0.8838 H         1 <0>         0.0732
     34 H14         6.6152   -0.0485    1.3069 H         1 <0>         0.3939
     35 H15        -1.3688   -4.7578   -3.6335 H         1 <0>         0.3913
     36 H16        -1.2036   -1.5601   -3.6888 H         1 <0>         0.0748
     37 H17        -2.4421   -2.3041   -2.6492 H         1 <0>         0.0797
     38 H18        -1.6058   -0.8252   -2.1184 H         1 <0>         0.0704
@<TRIPOS>BOND
     1    1    2 1
     2    1   21 1
     3    1   22 1
     4    1   23 1
     5    2    3 1
     6    2   24 1
     7    2   25 1
     8    3   16 1
     9    3    4 1
    10    3   26 1
    11    4    9 ar
    12    4    5 ar
    13    5    6 ar
    14    5   20 1
    15    6    7 ar
    16    6   19 1
    17    7    8 ar
    18    7   27 1
    19    8    9 ar
    20    8   28 1
    21    9   10 1
    22   10   15 ar
    23   10   11 ar
    24   11   12 ar
    25   11   29 1
    26   12   13 ar
    27   12   30 1
    28   13   14 ar
    29   13   18 1
    30   14   15 ar
    31   14   17 1
    32   15   16 1
    33   17   31 1
    34   17   32 1
    35   17   33 1
    36   18   34 1
    37   19   35 1
    38   20   36 1
    39   20   37 1
    40   20   38 1
@<TRIPOS>MOLECULE
CHEMBL206547__1
   38    40     0     0     0
SMALL
USER_CHARGES

@<TRIPOS>ATOM
      1 C1         -0.0187    1.5258    0.0104 C.3       1 <0>        -0.1502
      2 C2          0.0021   -0.0041    0.0020 C.3       1 <0>        -0.1465
      3 C3          0.7182   -0.4975   -1.2568 C.3       1 <0>         0.1398
      4 C4          0.8637   -1.9950   -1.1931 C.ar      1 <0>        -0.1076
      5 C5          1.9773   -2.5787   -0.6323 C.ar      1 <0>        -0.0898
      6 C6          2.0818   -3.9628   -0.5817 C.ar      1 <0>         0.1052
      7 C7          1.0683   -4.7622   -1.0932 C.ar      1 <0>        -0.1311
      8 C8         -0.0507   -4.1835   -1.6592 C.ar      1 <0>        -0.0950
      9 C9         -0.1542   -2.7999   -1.7134 C.ar      1 <0>        -0.0324
     10 C10        -1.3241   -2.1264   -2.3249 C.ar      1 <0>        -0.1219
     11 C11        -2.5083   -2.8061   -2.5748 C.ar      1 <0>        -0.0641
     12 C12        -3.5744   -2.1370   -3.1432 C.ar      1 <0>        -0.1662
     13 C13        -3.4620   -0.7900   -3.4627 C.ar      1 <0>         0.1388
     14 C14        -2.2803   -0.1059   -3.2161 C.ar      1 <0>        -0.1333
     15 C15        -1.2064   -0.7672   -2.6492 C.ar      1 <0>         0.1498
     16 O1         -0.0375   -0.1222   -2.4083 O.3       1 <0>        -0.2998
     17 C16        -2.1676    1.3558   -3.5651 C.3       1 <0>        -0.1053
     18 O2         -4.5157   -0.1383   -4.0208 O.3       1 <0>        -0.4913
     19 O3          3.1822   -4.5378   -0.0291 O.3       1 <0>        -0.4934
     20 C17         3.0812   -1.7175   -0.0747 C.3       1 <0>        -0.1196
     21 H1          1.0039    1.9031    0.0027 H         1 <0>         0.0579
     22 H2         -0.5459    1.8868   -0.8726 H         1 <0>         0.0619
     23 H3         -0.5289    1.8773    0.9072 H         1 <0>         0.0586
     24 H4          0.5293   -0.3651    0.8851 H         1 <0>         0.0794
     25 H5         -1.0205   -0.3814    0.0098 H         1 <0>         0.0687
     26 H6          1.7076   -0.0432   -1.3106 H         1 <0>         0.1283
     27 H7          1.1553   -5.8377   -1.0486 H         1 <0>         0.1348
     28 H8         -0.8403   -4.8034   -2.0576 H         1 <0>         0.1333
     29 H9         -2.5957   -3.8533   -2.3255 H         1 <0>         0.1336
     30 H10        -4.4972   -2.6624   -3.3399 H         1 <0>         0.1350
     31 H11        -2.4807    1.9582   -2.7124 H         1 <0>         0.0678
     32 H12        -1.1332    1.5908   -3.8158 H         1 <0>         0.0730
     33 H13        -2.8075    1.5757   -4.4198 H         1 <0>         0.0735
     34 H14        -5.1138    0.2657   -3.3772 H         1 <0>         0.3933
     35 H15         3.1037   -4.7054    0.9201 H         1 <0>         0.3908
     36 H16         2.8847   -1.5109    0.9773 H         1 <0>         0.0744
     37 H17         4.0331   -2.2396   -0.1708 H         1 <0>         0.0791
     38 H18         3.1241   -0.7790   -0.6274 H         1 <0>         0.0706
@<TRIPOS>BOND
     1    1    2 1
     2    1   21 1
     3    1   22 1
     4    1   23 1
     5    2    3 1
     6    2   24 1
     7    2   25 1
     8    3   16 1
     9    3    4 1
    10    3   26 1
    11    4    9 ar
    12    4    5 ar
    13    5    6 ar
    14    5   20 1
    15    6    7 ar
    16    6   19 1
    17    7    8 ar
    18    7   27 1
    19    8    9 ar
    20    8   28 1
    21    9   10 1
    22   10   15 ar
    23   10   11 ar
    24   11   12 ar
    25   11   29 1
    26   12   13 ar
    27   12   30 1
    28   13   14 ar
    29   13   18 1
    30   14   15 ar
    31   14   17 1
    32   15   16 1
    33   17   31 1
    34   17   32 1
    35   17   33 1
    36   18   34 1
    37   19   35 1
    38   20   36 1
    39   20   37 1
    40   20   38 1
@<TRIPOS>MOLECULE
CHEMBL214692
   47    51     0     0     0
SMALL
USER_CHARGES

@<TRIPOS>ATOM
      1 C1          0.1267    1.5126   -0.3479 C.3       1 <0>        -0.1542
      2 C2          0.1386   -0.0173   -0.3549 C.3       1 <0>        -0.1255
      3 C3         -1.2884   -0.5393   -0.1765 C.3       1 <0>        -0.1225
      4 C4         -1.2765   -2.0693   -0.1835 C.3       1 <0>        -0.1010
      5 C5         -2.7035   -2.5913   -0.0052 C.3       1 <0>        -0.0347
      6 C6         -3.6250   -2.0997   -1.1237 C.3       1 <0>        -0.1081
      7 C7         -3.1332   -2.6694   -2.4574 C.3       1 <0>        -0.1624
      8 C8         -3.1081   -4.1744   -2.4133 C.2       1 <0>         0.3990
      9 O1         -3.2518   -4.8120   -3.4361 O.2       1 <0>        -0.4452
     10 C9         -2.9097   -4.8738   -1.1361 C.2       1 <0>        -0.1112
     11 C10        -2.7506   -4.1106   -0.0047 C.2       1 <0>         0.0384
     12 C11        -2.6336   -4.5320    1.3918 C.ar      1 <0>        -0.0707
     13 C12        -2.2163   -5.7674    1.9476 C.ar      1 <0>        -0.0600
     14 C13        -2.2274   -5.9926    3.2794 C.ar      1 <0>        -0.0671
     15 C14        -2.6596   -4.9821    4.1604 C.ar      1 <0>         0.0464
     16 C15        -3.0669   -3.6812    3.6081 C.ar      1 <0>         0.0327
     17 C16        -3.0162   -3.4819    2.2212 C.ar      1 <0>        -0.0024
     18 C17        -3.2653   -2.2431    1.3845 C.3       1 <0>        -0.0740
     19 N1         -3.4129   -2.9599    4.6650 N.2       1 <0>        -0.2586
     20 N2         -3.2563   -3.6752    5.7240 N.pl3     1 <0>        -0.1925
     21 N3         -2.8190   -4.8582    5.4670 N.2       1 <0>        -0.2701
     22 H1         -3.4475   -3.3565    6.6200 H         1 <0>         0.4749
     23 C18        -2.8824   -6.3479   -1.0709 C.2       1 <0>        -0.0954
     24 C19        -1.9614   -7.2189   -1.5932 C.2       1 <0>        -0.1344
     25 C20        -2.1468   -8.5703   -1.4024 C.2       1 <0>        -0.1548
     26 C21        -3.2313   -8.9978   -0.7058 C.2       1 <0>        -0.1747
     27 S1         -4.0358   -7.4609   -0.2845 S.3       1 <0>         0.0486
     28 H2          1.1434    1.8845   -0.4750 H         1 <0>         0.0538
     29 H3         -0.4975    1.8748   -1.1648 H         1 <0>         0.0545
     30 H4         -0.2744    1.8685    0.6011 H         1 <0>         0.0536
     31 H5          0.5397   -0.3732   -1.3039 H         1 <0>         0.0622
     32 H6          0.7628   -0.3795    0.4620 H         1 <0>         0.0611
     33 H7         -1.6895   -0.1835    0.7725 H         1 <0>         0.0674
     34 H8         -1.9126   -0.1771   -0.9935 H         1 <0>         0.0700
     35 H9         -0.8754   -2.4251   -1.1325 H         1 <0>         0.0738
     36 H10        -0.6523   -2.4315    0.6334 H         1 <0>         0.0728
     37 H11        -4.6430   -2.4404   -0.9344 H         1 <0>         0.0778
     38 H12        -3.6039   -1.0106   -1.1620 H         1 <0>         0.0916
     39 H13        -3.8009   -2.3443   -3.2553 H         1 <0>         0.1027
     40 H14        -2.1278   -2.2989   -2.6576 H         1 <0>         0.1080
     41 H15        -1.8797   -6.5522    1.2864 H         1 <0>         0.1355
     42 H16        -1.9054   -6.9472    3.6685 H         1 <0>         0.1428
     43 H17        -2.7359   -1.3880    1.8048 H         1 <0>         0.0985
     44 H18        -4.3336   -2.0360    1.3213 H         1 <0>         0.0984
     45 H19        -1.1075   -6.8525   -2.1438 H         1 <0>         0.1331
     46 H20        -1.4387   -9.2811   -1.8021 H         1 <0>         0.1357
     47 H21        -3.5284  -10.0078   -0.4649 H         1 <0>         0.1865
@<TRIPOS>BOND
     1    1    2 1
     2    1   28 1
     3    1   29 1
     4    1   30 1
     5    2    3 1
     6    2   31 1
     7    2   32 1
     8    3    4 1
     9    3   33 1
    10    3   34 1
    11    4    5 1
    12    4   35 1
    13    4   36 1
    14    5   11 1
    15    5   18 1
    16    5    6 1
    17    6    7 1
    18    6   37 1
    19    6   38 1
    20    7    8 1
    21    7   39 1
    22    7   40 1
    23    8    9 2
    24    8   10 1
    25   10   11 2
    26   10   23 1
    27   11   12 1
    28   12   17 ar
    29   12   13 ar
    30   13   14 ar
    31   13   41 1
    32   14   15 ar
    33   14   42 1
    34   15   16 ar
    35   15   21 2
    36   16   17 ar
    37   16   19 2
    38   17   18 1
    39   18   43 1
    40   18   44 1
    41   19   20 1
    42   20   22 1
    43   20   21 1
    44   23   27 1
    45   23   24 2
    46   24   25 1
    47   24   45 1
    48   25   26 2
    49   25   46 1
    50   26   27 1
    51   26   47 1
@<TRIPOS>MOLECULE
CHEMBL214692__1
   47    51     0     0     0
SMALL
USER_CHARGES

@<TRIPOS>ATOM
      1 C1         -0.0187    1.5258    0.0104 C.3       1 <0>        -0.1541
      2 C2          0.0021   -0.0041    0.0020 C.3       1 <0>        -0.1262
      3 C3         -1.4333   -0.5336    0.0129 C.3       1 <0>        -0.1213
      4 C4         -1.4126   -2.0635    0.0045 C.3       1 <0>        -0.1032
      5 C5         -2.8479   -2.5931    0.0153 C.3       1 <0>        -0.0321
      6 C6         -3.6347   -2.1038   -1.2026 C.3       1 <0>        -0.1078
      7 C7         -2.9850   -2.6659   -2.4704 C.3       1 <0>        -0.1625
      8 C8         -2.9547   -4.1709   -2.4270 C.2       1 <0>         0.3982
      9 O1         -2.9714   -4.8061   -3.4610 O.2       1 <0>        -0.4422
     10 C9         -2.9055   -4.8731   -1.1367 C.2       1 <0>        -0.1033
     11 C10        -2.8853   -4.1129    0.0075 C.2       1 <0>         0.0315
     12 C11        -2.9321   -4.5364    1.4061 C.ar      1 <0>        -0.0520
     13 C12        -2.5926   -5.7628    2.0144 C.ar      1 <0>        -0.0921
     14 C13        -2.7783   -5.9531    3.3468 C.ar      1 <0>        -0.0522
     15 C14        -3.3052   -4.9235    4.1358 C.ar      1 <0>         0.0309
     16 C15        -3.6133   -3.6797    3.5492 C.ar      1 <0>         0.0354
     17 C16        -3.4113   -3.4830    2.1927 C.ar      1 <0>        -0.0521
     18 C17        -3.5688   -2.2472    1.3301 C.3       1 <0>        -0.0760
     19 N1         -4.0873   -2.9031    4.5792 N.pl3     1 <0>        -0.4136
     20 N2         -4.0727   -3.6123    5.6544 N.2       1 <0>        -0.0062
     21 N3         -3.6245   -4.7986    5.4384 N.2       1 <0>        -0.2479
     22 H1         -4.3818   -1.9816    4.5087 H         1 <0>         0.4535
     23 C18        -2.8787   -6.3472   -1.0723 C.2       1 <0>        -0.1018
     24 C19        -3.8377   -7.2466   -1.4612 C.2       1 <0>        -0.1269
     25 C20        -3.5859   -8.5914   -1.3032 C.2       1 <0>        -0.1535
     26 C21        -2.4007   -8.9848   -0.7694 C.2       1 <0>        -0.1717
     27 S1         -1.5858   -7.4240   -0.4750 S.3       1 <0>         0.0488
     28 H2          1.0039    1.9031    0.0027 H         1 <0>         0.0547
     29 H3         -0.5459    1.8868   -0.8726 H         1 <0>         0.0547
     30 H4         -0.5289    1.8773    0.9072 H         1 <0>         0.0531
     31 H5          0.5123   -0.3556   -0.8948 H         1 <0>         0.0631
     32 H6          0.5293   -0.3651    0.8851 H         1 <0>         0.0615
     33 H7         -1.9435   -0.1821    0.9097 H         1 <0>         0.0655
     34 H8         -1.9605   -0.1726   -0.8702 H         1 <0>         0.0704
     35 H9         -0.9024   -2.4150   -0.8923 H         1 <0>         0.0747
     36 H10        -0.8854   -2.4246    0.8875 H         1 <0>         0.0731
     37 H11        -4.6654   -2.4520   -1.1353 H         1 <0>         0.0781
     38 H12        -3.6168   -1.0145   -1.2353 H         1 <0>         0.0914
     39 H13        -3.5564   -2.3428   -3.3406 H         1 <0>         0.1039
     40 H14        -1.9657   -2.2880   -2.5498 H         1 <0>         0.1084
     41 H15        -2.1805   -6.5602    1.4138 H         1 <0>         0.1499
     42 H16        -2.5195   -6.8997    3.7977 H         1 <0>         0.1464
     43 H17        -3.0967   -1.3884    1.8073 H         1 <0>         0.0945
     44 H18        -4.6237   -2.0464    1.1432 H         1 <0>         0.0965
     45 H19        -4.7723   -6.9071   -1.8828 H         1 <0>         0.1337
     46 H20        -4.3220   -9.3240   -1.5998 H         1 <0>         0.1376
     47 H21        -2.0419   -9.9849   -0.5761 H         1 <0>         0.1893
@<TRIPOS>BOND
     1    1    2 1
     2    1   28 1
     3    1   29 1
     4    1   30 1
     5    2    3 1
     6    2   31 1
     7    2   32 1
     8    3    4 1
     9    3   33 1
    10    3   34 1
    11    4    5 1
    12    4   35 1
    13    4   36 1
    14    5   11 1
    15    5   18 1
    16    5    6 1
    17    6    7 1
    18    6   37 1
    19    6   38 1
    20    7    8 1
    21    7   39 1
    22    7   40 1
    23    8    9 2
    24    8   10 1
    25   10   11 2
    26   10   23 1
    27   11   12 1
    28   12   17 ar
    29   12   13 ar
    30   13   14 ar
    31   13   41 1
    32   14   15 ar
    33   14   42 1
    34   15   16 ar
    35   15   21 1
    36   16   17 ar
    37   16   19 1
    38   17   18 1
    39   18   43 1
    40   18   44 1
    41   19   22 1
    42   19   20 1
    43   20   21 2
    44   23   27 1
    45   23   24 2
    46   24   25 1
    47   24   45 1
    48   25   26 2
    49   25   46 1
    50   26   27 1
    51   26   47 1
@<TRIPOS>MOLECULE
CHEMBL214692__2
   47    51     0     0     0
SMALL
USER_CHARGES

@<TRIPOS>ATOM
      1 C1         -0.0187    1.5258    0.0104 C.3       1 <0>        -0.1543
      2 C2          0.0021   -0.0041    0.0020 C.3       1 <0>        -0.1255
      3 C3         -1.4333   -0.5336    0.0129 C.3       1 <0>        -0.1228
      4 C4         -1.4126   -2.0635    0.0045 C.3       1 <0>        -0.1018
      5 C5         -2.8479   -2.5931    0.0153 C.3       1 <0>        -0.0356
      6 C6         -3.6348   -2.1040   -1.2025 C.3       1 <0>        -0.1078
      7 C7         -2.9851   -2.6663   -2.4702 C.3       1 <0>        -0.1625
      8 C8         -2.9539   -4.1712   -2.4264 C.2       1 <0>         0.3999
      9 O1         -2.9696   -4.8067   -3.4603 O.2       1 <0>        -0.4461
     10 C9         -2.9051   -4.8731   -1.1363 C.2       1 <0>        -0.1173
     11 C10        -2.8855   -4.1130    0.0075 C.2       1 <0>         0.0446
     12 C11        -2.9340   -4.5361    1.4070 C.ar      1 <0>        -0.1071
     13 C12        -2.5971   -5.7626    2.0160 C.ar      1 <0>        -0.0388
     14 C13        -2.7857   -5.9500    3.3498 C.ar      1 <0>        -0.1291
     15 C14        -3.3072   -4.9244    4.1366 C.ar      1 <0>         0.1141
     16 C15        -3.6161   -3.6787    3.5598 C.ar      1 <0>        -0.0144
     17 C16        -3.4115   -3.4842    2.1913 C.ar      1 <0>         0.0265
     18 C17        -3.5688   -2.2477    1.3303 C.3       1 <0>        -0.0777
     19 N1         -4.0866   -2.8772    4.5455 N.2       1 <0>        -0.2034
     20 N2         -4.1000   -3.5122    5.6641 N.2       1 <0>         0.0024
     21 N3         -3.6192   -4.8150    5.4691 N.pl3     1 <0>        -0.4953
     22 H1         -3.5255   -5.5049    6.1445 H         1 <0>         0.4509
     23 C18        -2.8773   -6.3475   -1.0717 C.2       1 <0>        -0.0928
     24 C19        -3.8354   -7.2473   -1.4609 C.2       1 <0>        -0.1307
     25 C20        -3.5830   -8.5922   -1.3022 C.2       1 <0>        -0.1514
     26 C21        -2.3982   -8.9847   -0.7674 C.2       1 <0>        -0.1749
     27 S1         -1.5841   -7.4234   -0.4736 S.3       1 <0>         0.0411
     28 H2          1.0039    1.9031    0.0027 H         1 <0>         0.0537
     29 H3         -0.5459    1.8868   -0.8726 H         1 <0>         0.0545
     30 H4         -0.5289    1.8773    0.9072 H         1 <0>         0.0543
     31 H5          0.5123   -0.3556   -0.8948 H         1 <0>         0.0619
     32 H6          0.5293   -0.3651    0.8851 H         1 <0>         0.0612
     33 H7         -1.9435   -0.1821    0.9097 H         1 <0>         0.0687
     34 H8         -1.9605   -0.1726   -0.8702 H         1 <0>         0.0703
     35 H9         -0.9024   -2.4150   -0.8923 H         1 <0>         0.0735
     36 H10        -0.8854   -2.4246    0.8875 H         1 <0>         0.0725
     37 H11        -4.6655   -2.4522   -1.1352 H         1 <0>         0.0785
     38 H12        -3.6170   -1.0147   -1.2354 H         1 <0>         0.0923
     39 H13        -3.5567   -2.3438   -3.3405 H         1 <0>         0.1033
     40 H14        -1.9660   -2.2879   -2.5500 H         1 <0>         0.1079
     41 H15        -2.1855   -6.5615    1.4170 H         1 <0>         0.1510
     42 H16        -2.5307   -6.8974    3.8011 H         1 <0>         0.1408
     43 H17        -3.0965   -1.3894    1.8083 H         1 <0>         0.1031
     44 H18        -4.6238   -2.0466    1.1437 H         1 <0>         0.1026
     45 H19        -4.7698   -6.9085   -1.8834 H         1 <0>         0.1342
     46 H20        -4.3185   -9.3253   -1.5991 H         1 <0>         0.1371
     47 H21        -2.0389   -9.9846   -0.5739 H         1 <0>         0.1883
@<TRIPOS>BOND
     1    1    2 1
     2    1   28 1
     3    1   29 1
     4    1   30 1
     5    2    3 1
     6    2   31 1
     7    2   32 1
     8    3    4 1
     9    3   33 1
    10    3   34 1
    11    4    5 1
    12    4   35 1
    13    4   36 1
    14    5   11 1
    15    5   18 1
    16    5    6 1
    17    6    7 1
    18    6   37 1
    19    6   38 1
    20    7    8 1
    21    7   39 1
    22    7   40 1
    23    8    9 2
    24    8   10 1
    25   10   11 2
    26   10   23 1
    27   11   12 1
    28   12   17 ar
    29   12   13 ar
    30   13   14 ar
    31   13   41 1
    32   14   15 ar
    33   14   42 1
    34   15   21 1
    35   15   16 ar
    36   16   17 ar
    37   16   19 1
    38   17   18 1
    39   18   43 1
    40   18   44 1
    41   19   20 2
    42   20   21 1
    43   21   22 1
    44   23   27 1
    45   23   24 2
    46   24   25 1
    47   24   45 1
    48   25   26 2
    49   25   46 1
    50   26   27 1
    51   26   47 1
@<TRIPOS>MOLECULE
CHEMBL85650
   64    67     0     0     0
SMALL
USER_CHARGES

@<TRIPOS>ATOM
      1 C1          0.1182    1.7196    0.0851 C.3       1 <0>        -0.1473
      2 C2          0.2455    0.1954    0.1222 C.3       1 <0>        -0.1010
      3 C3         -1.1495   -0.4326    0.1417 C.3       1 <0>        -0.1462
      4 C4          1.0031   -0.2835   -1.1178 C.3       1 <0>        -0.1060
      5 C5          2.4387    0.2438   -1.0736 C.3       1 <0>        -0.1054
      6 H1          2.4332    1.3283   -0.9650 H         1 <0>         0.1325
      7 C6          3.1826   -0.1510   -2.3603 C.3       1 <0>         0.1439
      8 H2          4.2353    0.1169   -2.2696 H         1 <0>         0.0910
      9 O1          3.0642   -1.5523   -2.5529 O.3       1 <0>        -0.3099
     10 C7          3.5139   -2.4426   -1.6376 C.ar      1 <0>         0.1198
     11 C8          3.8226   -3.7255   -2.0837 C.ar      1 <0>        -0.1135
     12 C9          4.2717   -4.6874   -1.2026 C.ar      1 <0>        -0.1092
     13 C10         4.4201   -4.3869    0.1435 C.ar      1 <0>         0.0978
     14 C11         4.1212   -3.1128    0.5979 C.ar      1 <0>        -0.0916
     15 C12         3.6766   -2.1420   -0.2899 C.ar      1 <0>        -0.1390
     16 S1          3.3367   -0.5151    0.3164 S.3       1 <0>        -0.0959
     17 O2          4.8560   -5.3378    1.0123 O.3       1 <0>        -0.4922
     18 C13         2.5776    0.5739   -3.5349 C.ar      1 <0>        -0.1007
     19 C14         1.4067    0.1086   -4.1043 C.ar      1 <0>        -0.0470
     20 C15         0.8502    0.7710   -5.1813 C.ar      1 <0>        -0.1418
     21 C16         1.4671    1.9042   -5.6913 C.ar      1 <0>         0.1228
     22 C17         2.6416    2.3692   -5.1179 C.ar      1 <0>        -0.2011
     23 C18         3.1912    1.7063   -4.0377 C.ar      1 <0>        -0.0593
     24 O3          0.9219    2.5573   -6.7510 O.3       1 <0>        -0.3271
     25 C19         1.6113    3.7166   -7.2232 C.3       1 <0>         0.0249
     26 C20         0.8533    4.3121   -8.4113 C.3       1 <0>        -0.0010
     27 N1         -0.4712    4.7678   -7.9685 N.4       1 <0>        -0.3842
     28 C21        -1.2550    5.1945   -9.1338 C.3       1 <0>        -0.0072
     29 C22        -2.6633    5.5937   -8.6877 C.3       1 <0>        -0.1467
     30 C23        -2.5673    6.7472   -7.6849 C.3       1 <0>        -0.1391
     31 C24        -1.6863    6.3161   -6.5088 C.3       1 <0>        -0.1454
     32 C25        -0.3142    5.8902   -7.0357 C.3       1 <0>        -0.0131
     33 H3          1.1121    2.1670    0.0712 H         1 <0>         0.0509
     34 H4         -0.4266    2.0170   -0.8110 H         1 <0>         0.0512
     35 H5         -0.4215    2.0608    0.9685 H         1 <0>         0.0590
     36 H6          0.7903   -0.1020    1.0182 H         1 <0>         0.0850
     37 H7         -1.6943   -0.1353   -0.7544 H         1 <0>         0.0518
     38 H8         -1.0588   -1.5185    0.1681 H         1 <0>         0.0560
     39 H9         -1.6893   -0.0915    1.0251 H         1 <0>         0.0588
     40 H10         1.0168   -1.3732   -1.1369 H         1 <0>         0.0721
     41 H11         0.5065    0.0894   -2.0135 H         1 <0>         0.0790
     42 H12         3.7096   -3.9696   -3.1297 H         1 <0>         0.1395
     43 H13         4.5083   -5.6780   -1.5621 H         1 <0>         0.1416
     44 H14         4.2345   -2.8738    1.6451 H         1 <0>         0.1390
     45 H15         5.8170   -5.3648    1.1162 H         1 <0>         0.3938
     46 H16         0.9269   -0.7736   -3.7069 H         1 <0>         0.1424
     47 H17        -0.0640    0.4068   -5.6262 H         1 <0>         0.1365
     48 H18         3.1237    3.2512   -5.5131 H         1 <0>         0.1317
     49 H19         4.1032    2.0704   -3.5881 H         1 <0>         0.1347
     50 H20         1.6709    4.4547   -6.4233 H         1 <0>         0.0870
     51 H21         2.6175    3.4384   -7.5366 H         1 <0>         0.1103
     52 H22         1.4128    5.1571   -8.8126 H         1 <0>         0.1494
     53 H23         0.7365    3.5533   -9.1850 H         1 <0>         0.1429
     54 H24        -0.7683    6.0480   -9.6058 H         1 <0>         0.1293
     55 H25        -1.3197    4.3736   -9.8480 H         1 <0>         0.1312
     56 H26        -3.2430    5.9119   -9.5541 H         1 <0>         0.1133
     57 H27        -3.1510    4.7408   -8.2158 H         1 <0>         0.0880
     58 H28        -2.1261    7.6172   -8.1712 H         1 <0>         0.0822
     59 H29        -3.5638    6.9977   -7.3211 H         1 <0>         0.0948
     60 H30        -1.5677    7.1507   -5.8178 H         1 <0>         0.1123
     61 H31        -2.1538    5.4782   -5.9917 H         1 <0>         0.0878
     62 H32         0.3157    5.5829   -6.2009 H         1 <0>         0.1270
     63 H33         0.1525    6.7288   -7.5523 H         1 <0>         0.1303
     64 H34        -0.9485    4.0099   -7.5039 H         1 <0>         0.4293
@<TRIPOS>BOND
     1    1    2 1
     2    1   33 1
     3    1   34 1
     4    1   35 1
     5    2    3 1
     6    2    4 1
     7    2   36 1
     8    3   37 1
     9    3   38 1
    10    3   39 1
    11    4    5 1
    12    4   40 1
    13    4   41 1
    14    5    6 1
    15    5   16 1
    16    5    7 1
    17    7    8 1
    18    7    9 1
    19    7   18 1
    20    9   10 1
    21   10   15 ar
    22   10   11 ar
    23   11   12 ar
    24   11   42 1
    25   12   13 ar
    26   12   43 1
    27   13   14 ar
    28   13   17 1
    29   14   15 ar
    30   14   44 1
    31   15   16 1
    32   17   45 1
    33   18   23 ar
    34   18   19 ar
    35   19   20 ar
    36   19   46 1
    37   20   21 ar
    38   20   47 1
    39   21   22 ar
    40   21   24 1
    41   22   23 ar
    42   22   48 1
    43   23   49 1
    44   24   25 1
    45   25   26 1
    46   25   50 1
    47   25   51 1
    48   26   27 1
    49   26   52 1
    50   26   53 1
    51   27   32 1
    52   27   28 1
    53   27   64 1
    54   28   29 1
    55   28   54 1
    56   28   55 1
    57   29   30 1
    58   29   56 1
    59   29   57 1
    60   30   31 1
    61   30   58 1
    62   30   59 1
    63   31   32 1
    64   31   60 1
    65   31   61 1
    66   32   62 1
    67   32   63 1
@<TRIPOS>MOLECULE
CHEMBL209978
   37    40     0     0     0
SMALL
USER_CHARGES

@<TRIPOS>ATOM
      1 C1         -0.0177    1.3763    0.0110 C.ar      1 <0>        -0.1157
      2 C2          0.8104    1.4669   -1.0922 C.ar      1 <0>        -0.1131
      3 C3          2.0171    0.7928   -1.1079 C.ar      1 <0>        -0.1110
      4 C4          2.3960    0.0285   -0.0201 C.ar      1 <0>        -0.0676
      5 C5          1.5684   -0.0613    1.0835 C.ar      1 <0>        -0.1087
      6 C6          0.3610    0.6116    1.0985 C.ar      1 <0>        -0.1148
      7 C7          3.7112   -0.7071   -0.0376 C.3       1 <0>         0.0035
      8 C8          4.6249   -0.2472    1.1011 C.3       1 <0>        -0.1046
      9 C9          4.9733    1.2280    0.8753 C.3       1 <0>        -0.1583
     10 C10         5.6052    1.4201   -0.4766 C.2       1 <0>         0.3965
     11 O1          6.3722    2.3457   -0.6505 O.2       1 <0>        -0.4412
     12 C11         5.3228    0.5436   -1.5458 C.2       1 <0>        -0.2036
     13 C12         4.4637   -0.4808   -1.3431 C.2       1 <0>         0.0653
     14 C13         4.0937   -1.5765   -2.2239 C.ar      1 <0>        -0.1180
     15 C14         4.1799   -1.6701   -3.6235 C.ar      1 <0>        -0.0439
     16 C15         3.7862   -2.8630   -4.1994 C.ar      1 <0>        -0.1591
     17 C16         3.3262   -3.9263   -3.4354 C.ar      1 <0>         0.1413
     18 C17         3.2211   -3.8411   -2.0451 C.ar      1 <0>        -0.1383
     19 C18         3.5938   -2.6517   -1.4564 C.ar      1 <0>        -0.0403
     20 C19         3.5054   -2.2342   -0.0148 C.3       1 <0>        -0.0763
     21 O2          2.9695   -5.0796   -4.0555 O.3       1 <0>        -0.4986
     22 Br1         6.1329    0.7975   -3.2355 Br        1 <0>        -0.0213
     23 H1         -0.9585    1.9065    0.0250 H         1 <0>         0.1241
     24 H2          0.5143    2.0640   -1.9420 H         1 <0>         0.1242
     25 H3          2.6637    0.8630   -1.9700 H         1 <0>         0.1188
     26 H4          1.8643   -0.6587    1.9331 H         1 <0>         0.1262
     27 H5         -0.2858    0.5411    1.9606 H         1 <0>         0.1259
     28 H6          4.1089   -0.3608    2.0545 H         1 <0>         0.0922
     29 H7          5.5372   -0.8437    1.1035 H         1 <0>         0.0829
     30 H8          4.0637    1.8256    0.9352 H         1 <0>         0.1072
     31 H9          5.6695    1.5553    1.6474 H         1 <0>         0.1055
     32 H10         4.5377   -0.8458   -4.2227 H         1 <0>         0.1453
     33 H11         3.8376   -2.9706   -5.2728 H         1 <0>         0.1350
     34 H12         2.8625   -4.6722   -1.4560 H         1 <0>         0.1434
     35 H13         4.2908   -2.7147    0.5687 H         1 <0>         0.1010
     36 H14         2.5245   -2.4793    0.3923 H         1 <0>         0.0986
     37 H15         3.6932   -5.7134   -4.1540 H         1 <0>         0.3971
@<TRIPOS>BOND
     1    1    6 ar
     2    1    2 ar
     3    1   23 1
     4    2    3 ar
     5    2   24 1
     6    3    4 ar
     7    3   25 1
     8    4    5 ar
     9    4    7 1
    10    5    6 ar
    11    5   26 1
    12    6   27 1
    13    7   13 1
    14    7   20 1
    15    7    8 1
    16    8    9 1
    17    8   28 1
    18    8   29 1
    19    9   10 1
    20    9   30 1
    21    9   31 1
    22   10   11 2
    23   10   12 1
    24   12   13 2
    25   12   22 1
    26   13   14 1
    27   14   19 ar
    28   14   15 ar
    29   15   16 ar
    30   15   32 1
    31   16   17 ar
    32   16   33 1
    33   17   18 ar
    34   17   21 1
    35   18   19 ar
    36   18   34 1
    37   19   20 1
    38   20   35 1
    39   20   36 1
    40   21   37 1
@<TRIPOS>MOLECULE
CHEMBL209978__1
   37    40     0     0     0
SMALL
USER_CHARGES

@<TRIPOS>ATOM
      1 C1         -0.0157    1.3798    0.0106 C.ar      1 <0>        -0.1160
      2 C2          0.9229    1.6186    0.9969 C.ar      1 <0>        -0.1133
      3 C3          2.1289    0.9431    0.9814 C.ar      1 <0>        -0.1112
      4 C4          2.3960    0.0285   -0.0201 C.ar      1 <0>        -0.0669
      5 C5          1.4570   -0.2109   -1.0059 C.ar      1 <0>        -0.1087
      6 C6          0.2516    0.4656   -0.9912 C.ar      1 <0>        -0.1148
      7 C7          3.7112   -0.7071   -0.0376 C.3       1 <0>         0.0033
      8 C8          4.4961   -0.4200   -1.3199 C.3       1 <0>        -0.1049
      9 C9          4.8553    1.0697   -1.3433 C.3       1 <0>        -0.1582
     10 C10         5.6249    1.4465   -0.1067 C.2       1 <0>         0.3964
     11 O1          6.3984    2.3821   -0.1473 O.2       1 <0>        -0.4410
     12 C11         5.4635    0.7324    1.0997 C.2       1 <0>        -0.2034
     13 C12         4.5956   -0.3038    1.1359 C.2       1 <0>         0.0649
     14 C13         4.3289   -1.2609    2.1971 C.ar      1 <0>        -0.1182
     15 C14         4.5631   -1.1560    3.5789 C.ar      1 <0>        -0.0437
     16 C15         4.2414   -2.2524    4.3562 C.ar      1 <0>        -0.1593
     17 C16         3.7113   -3.4097    3.8034 C.ar      1 <0>         0.1409
     18 C17         3.4594   -3.5214    2.4339 C.ar      1 <0>        -0.1377
     19 C18         3.7589   -2.4302    1.6468 C.ar      1 <0>        -0.0401
     20 C19         3.5157   -2.2204    0.1780 C.3       1 <0>        -0.0763
     21 O2          3.4307   -4.4608    4.6147 O.3       1 <0>        -0.4981
     22 Br1         6.4456    1.2170    2.6413 Br        1 <0>        -0.0210
     23 H1         -0.9597    1.9042    0.0253 H         1 <0>         0.1240
     24 H2          0.7143    2.3331    1.7794 H         1 <0>         0.1241
     25 H3          2.8626    1.1302    1.7516 H         1 <0>         0.1190
     26 H4          1.6658   -0.9252   -1.7886 H         1 <0>         0.1262
     27 H5         -0.4819    0.2788   -1.7616 H         1 <0>         0.1259
     28 H6          5.4075   -1.0177   -1.3341 H         1 <0>         0.0831
     29 H7          3.8832   -0.6635   -2.1878 H         1 <0>         0.0922
     30 H8          5.4636    1.2791   -2.2232 H         1 <0>         0.1055
     31 H9          3.9400    1.6596   -1.3910 H         1 <0>         0.1071
     32 H10         4.9765   -0.2582    4.0141 H         1 <0>         0.1453
     33 H11         4.4073   -2.2075    5.4224 H         1 <0>         0.1349
     34 H12         3.0466   -4.4247    2.0097 H         1 <0>         0.1435
     35 H13         2.4991   -2.5134   -0.0844 H         1 <0>         0.0984
     36 H14         4.2386   -2.7846   -0.4112 H         1 <0>         0.1012
     37 H15         2.5332   -4.4513    4.9746 H         1 <0>         0.3968
@<TRIPOS>BOND
     1    1    6 ar
     2    1    2 ar
     3    1   23 1
     4    2    3 ar
     5    2   24 1
     6    3    4 ar
     7    3   25 1
     8    4    5 ar
     9    4    7 1
    10    5    6 ar
    11    5   26 1
    12    6   27 1
    13    7   13 1
    14    7   20 1
    15    7    8 1
    16    8    9 1
    17    8   28 1
    18    8   29 1
    19    9   10 1
    20    9   30 1
    21    9   31 1
    22   10   11 2
    23   10   12 1
    24   12   13 2
    25   12   22 1
    26   13   14 1
    27   14   19 ar
    28   14   15 ar
    29   15   16 ar
    30   15   32 1
    31   16   17 ar
    32   16   33 1
    33   17   18 ar
    34   17   21 1
    35   18   19 ar
    36   18   34 1
    37   19   20 1
    38   20   35 1
    39   20   36 1
    40   21   37 1
@<TRIPOS>MOLECULE
CHEMBL1084265
   28    30     0     0     0
SMALL
USER_CHARGES

@<TRIPOS>ATOM
      1 C1         -0.0173    1.4248    0.0099 C.3       1 <0>         0.0206
      2 O1          0.0021   -0.0041    0.0020 O.3       1 <0>        -0.2862
      3 C2          0.6248   -0.6173    1.0397 C.ar      1 <0>         0.2172
      4 C3          1.2022    0.1339    2.0511 C.ar      1 <0>        -0.2450
      5 C4          1.8390   -0.4970    3.1053 C.ar      1 <0>        -0.0124
      6 C5          1.9139   -1.8740    3.1660 C.ar      1 <0>        -0.1835
      7 C6          1.3451   -2.6516    2.1640 C.ar      1 <0>         0.1948
      8 C7          0.6845   -2.0135    1.1012 C.ar      1 <0>        -0.2631
      9 C8          0.0571   -2.8490    0.0586 C.2       1 <0>         0.4407
     10 O2         -0.3308   -2.3823   -0.9971 O.2       1 <0>        -0.4298
     11 C9         -0.0707   -4.2864    0.3745 C.ar      1 <0>        -0.2311
     12 C10        -0.8706   -5.1244   -0.4027 C.ar      1 <0>        -0.0125
     13 C11        -0.9764   -6.4484   -0.0834 C.ar      1 <0>        -0.1736
     14 C12        -0.2893   -6.9612    1.0146 C.ar      1 <0>         0.1740
     15 C13         0.5106   -6.1412    1.7927 C.ar      1 <0>        -0.1736
     16 C14         0.6324   -4.7929    1.4806 C.ar      1 <0>         0.1720
     17 O3          1.4302   -3.9959    2.2239 O.3       1 <0>        -0.2235
     18 O4         -0.4045   -8.2775    1.3245 O.3       1 <0>        -0.4915
     19 H1          1.0053    1.8021    0.0021 H         1 <0>         0.0613
     20 H2         -0.5445    1.7859   -0.8732 H         1 <0>         0.1072
     21 H3         -0.5275    1.7763    0.9067 H         1 <0>         0.0608
     22 H4          1.1556    1.2123    2.0163 H         1 <0>         0.1424
     23 H5          2.2835    0.0958    3.8910 H         1 <0>         0.1446
     24 H6          2.4169   -2.3492    3.9952 H         1 <0>         0.1458
     25 H7         -1.4045   -4.7278   -1.2536 H         1 <0>         0.1475
     26 H8         -1.5949   -7.0993   -0.6836 H         1 <0>         0.1440
     27 H9          1.0387   -6.5493    2.6418 H         1 <0>         0.1507
     28 H10         0.2538   -8.8416    0.8960 H         1 <0>         0.4021
@<TRIPOS>BOND
     1    1    2 1
     2    1   19 1
     3    1   20 1
     4    1   21 1
     5    2    3 1
     6    3    8 ar
     7    3    4 ar
     8    4    5 ar
     9    4   22 1
    10    5    6 ar
    11    5   23 1
    12    6    7 ar
    13    6   24 1
    14    7   17 1
    15    7    8 ar
    16    8    9 1
    17    9   10 2
    18    9   11 1
    19   11   16 ar
    20   11   12 ar
    21   12   13 ar
    22   12   25 1
    23   13   14 ar
    24   13   26 1
    25   14   15 ar
    26   14   18 1
    27   15   16 ar
    28   15   27 1
    29   16   17 1
    30   18   28 1
@<TRIPOS>MOLECULE
CHEMBL1081361
   45    48     0     0     0
SMALL
USER_CHARGES

@<TRIPOS>ATOM
      1 C1         -0.0187    1.5258    0.0104 C.3       1 <0>        -0.1450
      2 C2          0.0021   -0.0041    0.0020 C.3       1 <0>        -0.1026
      3 C3         -1.4301   -0.5323    0.0102 C.3       1 <0>        -0.1010
      4 C4         -2.1501   -0.0375    1.2711 C.3       1 <0>        -0.1143
      5 C5         -1.3942   -0.5217    2.5050 C.3       1 <0>        -0.0430
      6 H1         -1.3519   -1.6107    2.4845 H         1 <0>         0.0848
      7 C6         -2.0767   -0.0893    3.7714 C.ar      1 <0>        -0.0658
      8 C7         -3.4648   -0.0788    3.7987 C.ar      1 <0>        -0.0958
      9 C8         -4.1421    0.3019    4.9385 C.ar      1 <0>        -0.0647
     10 C9         -3.4276    0.6763    6.0689 C.ar      1 <0>         0.1150
     11 C10        -2.0444    0.6681    6.0396 C.ar      1 <0>        -0.1359
     12 C11        -1.3637    0.2899    4.8895 C.ar      1 <0>        -0.0532
     13 C12         0.1415    0.3296    4.9246 C.3       1 <0>        -0.0827
     14 C13         0.7437   -0.4440    3.7522 C.3       1 <0>        -0.1171
     15 C14         0.0338    0.0252    2.4830 C.3       1 <0>        -0.0772
     16 H2          0.0065    1.1142    2.4471 H         1 <0>         0.0853
     17 C15         0.7443   -0.5124    1.2454 C.3       1 <0>        -0.0663
     18 H3          0.7236   -1.6021    1.2600 H         1 <0>         0.0762
     19 C16         2.1934   -0.0348    1.1934 C.3       1 <0>        -0.1250
     20 C17         2.8966   -0.6689   -0.0096 C.3       1 <0>        -0.1132
     21 C18         2.2271   -0.2051   -1.3065 C.3       1 <0>        -0.1715
     22 C19         0.7421   -0.4906   -1.2210 C.2       1 <0>         0.3697
     23 O1          0.1693   -1.0868   -2.1012 O.2       1 <0>        -0.4501
     24 O2         -4.0842    1.0497    7.1989 O.3       1 <0>        -0.4874
     25 Cl1        -5.8780    0.3133    4.9597 Cl        1 <0>        -0.0572
     26 H4          1.0039    1.9031    0.0027 H         1 <0>         0.0661
     27 H5         -0.5459    1.8868   -0.8726 H         1 <0>         0.0592
     28 H6         -0.5289    1.8773    0.9072 H         1 <0>         0.0756
     29 H7         -1.9557   -0.1712   -0.8737 H         1 <0>         0.0723
     30 H8         -1.4154   -1.6222    0.0043 H         1 <0>         0.0677
     31 H9         -2.1820    1.0520    1.2680 H         1 <0>         0.0717
     32 H10        -3.1660   -0.4320    1.2885 H         1 <0>         0.0704
     33 H11        -4.0194   -0.3711    2.9192 H         1 <0>         0.1383
     34 H12        -1.4889    0.9591    6.9189 H         1 <0>         0.1366
     35 H13         0.4725    1.3670    4.8756 H         1 <0>         0.0813
     36 H14         0.4885   -0.1111    5.8592 H         1 <0>         0.0786
     37 H15         1.8104   -0.2313    3.6805 H         1 <0>         0.0781
     38 H16         0.5903   -1.5130    3.8995 H         1 <0>         0.0692
     39 H17         2.2150    1.0506    1.0964 H         1 <0>         0.0738
     40 H18         2.7056   -0.3280    2.1098 H         1 <0>         0.0766
     41 H19         3.9447   -0.3695   -0.0158 H         1 <0>         0.0762
     42 H20         2.8315   -1.7545    0.0635 H         1 <0>         0.0667
     43 H21         2.3861    0.8654   -1.4369 H         1 <0>         0.0985
     44 H22         2.6546   -0.7450   -2.1514 H         1 <0>         0.0878
     45 H23        -4.2736    0.3191    7.8034 H         1 <0>         0.3931
@<TRIPOS>BOND
     1    1    2 1
     2    1   26 1
     3    1   27 1
     4    1   28 1
     5    2   17 1
     6    2   22 1
     7    2    3 1
     8    3    4 1
     9    3   29 1
    10    3   30 1
    11    4    5 1
    12    4   31 1
    13    4   32 1
    14    5    6 1
    15    5   15 1
    16    5    7 1
    17    7   12 ar
    18    7    8 ar
    19    8    9 ar
    20    8   33 1
    21    9   10 ar
    22    9   25 1
    23   10   11 ar
    24   10   24 1
    25   11   12 ar
    26   11   34 1
    27   12   13 1
    28   13   14 1
    29   13   35 1
    30   13   36 1
    31   14   15 1
    32   14   37 1
    33   14   38 1
    34   15   16 1
    35   15   17 1
    36   17   18 1
    37   17   19 1
    38   19   20 1
    39   19   39 1
    40   19   40 1
    41   20   21 1
    42   20   41 1
    43   20   42 1
    44   21   22 1
    45   21   43 1
    46   21   44 1
    47   22   23 2
    48   24   45 1
@<TRIPOS>MOLECULE
CHEMBL12987
   66    71     0     0     0
SMALL
USER_CHARGES

@<TRIPOS>ATOM
      1 C1          0.1595    0.8654    0.4243 C.ar      1 <0>        -0.0918
      2 C2          1.2876    1.6617    0.4345 C.ar      1 <0>        -0.1154
      3 C3          2.5147    1.1316    0.0635 C.ar      1 <0>         0.1005
      4 C4          2.6097   -0.1987   -0.3182 C.ar      1 <0>        -0.1799
      5 C5          1.4827   -0.9966   -0.3287 C.ar      1 <0>        -0.1064
      6 C6          0.2537   -0.4668    0.0427 C.ar      1 <0>         0.1524
      7 N1         -0.8887   -1.2744    0.0324 N.pl3     1 <0>        -0.5762
      8 C7         -1.2793   -1.9911   -1.1874 C.3       1 <0>         0.1748
      9 C8         -2.7621   -1.8386   -1.4106 C.ar      1 <0>        -0.0910
     10 C9         -3.2808   -1.8738   -2.6873 C.ar      1 <0>        -0.1304
     11 C10        -4.6483   -1.7385   -2.8853 C.ar      1 <0>         0.1094
     12 C11        -5.4987   -1.5694   -1.8009 C.ar      1 <0>        -0.1346
     13 C12        -4.9866   -1.5307   -0.5202 C.ar      1 <0>        -0.0907
     14 C13        -3.6153   -1.6617   -0.3196 C.ar      1 <0>        -0.0322
     15 C14        -3.0396   -1.6048    1.0452 C.ar      1 <0>        -0.1021
     16 C15        -1.6632   -1.4113    1.1801 C.ar      1 <0>         0.2139
     17 C16        -1.0890   -1.3552    2.4624 C.ar      1 <0>        -0.0839
     18 C17         0.2900   -1.1538    2.6369 C.ar      1 <0>        -0.0926
     19 C18         0.8128   -1.1062    3.8920 C.ar      1 <0>        -0.1482
     20 C19        -0.0051   -1.2555    5.0159 C.ar      1 <0>         0.1185
     21 C20        -1.3506   -1.4515    4.8823 C.ar      1 <0>        -0.1388
     22 C21        -1.9223   -1.5051    3.6008 C.ar      1 <0>        -0.0035
     23 C22        -3.3050   -1.7037    3.4318 C.ar      1 <0>        -0.1388
     24 C23        -3.8494   -1.7456    2.1782 C.ar      1 <0>        -0.0623
     25 O1          0.5451   -1.2047    6.2572 O.3       1 <0>        -0.4990
     26 O2         -5.1564   -1.7723   -4.1453 O.3       1 <0>        -0.4976
     27 O3          3.6250    1.9166    0.0735 O.3       1 <0>        -0.3269
     28 C24         4.8552    1.3054   -0.3203 C.3       1 <0>         0.0252
     29 C25         5.9834    2.3362   -0.2464 C.3       1 <0>        -0.0011
     30 N2          6.1631    2.7665    1.1466 N.4       1 <0>        -0.3840
     31 C26         7.1350    3.8653    1.1962 C.3       1 <0>        -0.0071
     32 C27         7.2654    4.3714    2.6344 C.3       1 <0>        -0.1467
     33 C28         7.7417    3.2256    3.5318 C.3       1 <0>        -0.1390
     34 C29         6.7595    2.0565    3.4148 C.3       1 <0>        -0.1453
     35 C30         6.6478    1.6362    1.9477 C.3       1 <0>        -0.0133
     36 H1         -0.7950    1.2773    0.7171 H         1 <0>         0.1368
     37 H2          1.2146    2.6975    0.7312 H         1 <0>         0.1376
     38 H3          3.5653   -0.6103   -0.6076 H         1 <0>         0.1327
     39 H4          1.5569   -2.0323   -0.6259 H         1 <0>         0.1364
     40 H5         -0.7396   -1.5780   -2.0396 H         1 <0>         0.0949
     41 H6         -1.0350   -3.0480   -1.0814 H         1 <0>         0.0788
     42 H7         -2.6233   -2.0062   -3.5338 H         1 <0>         0.1327
     43 H8         -6.5621   -1.4676   -1.9600 H         1 <0>         0.1350
     44 H9         -5.6474   -1.3989    0.3238 H         1 <0>         0.1339
     45 H10         0.9334   -1.0373    1.7773 H         1 <0>         0.1393
     46 H11         1.8738   -0.9514    4.0218 H         1 <0>         0.1235
     47 H12        -1.9718   -1.5647    5.7584 H         1 <0>         0.1377
     48 H13        -3.9412   -1.8182    4.2970 H         1 <0>         0.1332
     49 H14        -4.9118   -1.8989    2.0592 H         1 <0>         0.1326
     50 H15         0.5747   -0.3164    6.6383 H         1 <0>         0.3920
     51 H16        -5.3991   -2.6581   -4.4479 H         1 <0>         0.3944
     52 H17         5.0783    0.4740    0.3484 H         1 <0>         0.0864
     53 H18         4.7668    0.9362   -1.3421 H         1 <0>         0.1095
     54 H19         6.9084    1.8892   -0.6108 H         1 <0>         0.1489
     55 H20         5.7289    3.1982   -0.8631 H         1 <0>         0.1427
     56 H21         8.1043    3.5084    0.8478 H         1 <0>         0.1291
     57 H22         6.7963    4.6787    0.5546 H         1 <0>         0.1310
     58 H23         7.9888    5.1860    2.6694 H         1 <0>         0.1130
     59 H24         6.2967    4.7288    2.9837 H         1 <0>         0.0880
     60 H25         8.7330    2.9019    3.2145 H         1 <0>         0.0821
     61 H26         7.7819    3.5656    4.5666 H         1 <0>         0.0947
     62 H27         7.1212    1.2164    4.0076 H         1 <0>         0.1124
     63 H28         5.7803    2.3658    3.7803 H         1 <0>         0.0879
     64 H29         5.9494    0.8038    1.8608 H         1 <0>         0.1274
     65 H30         7.6274    1.3268    1.5833 H         1 <0>         0.1302
     66 H31         5.2796    3.0848    1.5158 H         1 <0>         0.4294
@<TRIPOS>BOND
     1    1    6 ar
     2    1    2 ar
     3    1   36 1
     4    2    3 ar
     5    2   37 1
     6    3    4 ar
     7    3   27 1
     8    4    5 ar
     9    4   38 1
    10    5    6 ar
    11    5   39 1
    12    6    7 1
    13    7   16 1
    14    7    8 1
    15    8    9 1
    16    8   40 1
    17    8   41 1
    18    9   14 ar
    19    9   10 ar
    20   10   11 ar
    21   10   42 1
    22   11   12 ar
    23   11   26 1
    24   12   13 ar
    25   12   43 1
    26   13   14 ar
    27   13   44 1
    28   14   15 1
    29   15   24 ar
    30   15   16 ar
    31   16   17 ar
    32   17   22 ar
    33   17   18 ar
    34   18   19 ar
    35   18   45 1
    36   19   20 ar
    37   19   46 1
    38   20   21 ar
    39   20   25 1
    40   21   22 ar
    41   21   47 1
    42   22   23 ar
    43   23   24 ar
    44   23   48 1
    45   24   49 1
    46   25   50 1
    47   26   51 1
    48   27   28 1
    49   28   29 1
    50   28   52 1
    51   28   53 1
    52   29   30 1
    53   29   54 1
    54   29   55 1
    55   30   35 1
    56   30   31 1
    57   30   66 1
    58   31   32 1
    59   31   56 1
    60   31   57 1
    61   32   33 1
    62   32   58 1
    63   32   59 1
    64   33   34 1
    65   33   60 1
    66   33   61 1
    67   34   35 1
    68   34   62 1
    69   34   63 1
    70   35   64 1
    71   35   65 1
@<TRIPOS>MOLECULE
CHEMBL481189
   69    73     0     0     0
SMALL
USER_CHARGES

@<TRIPOS>ATOM
      1 C1          0.1400    1.5003   -0.0058 C.3       1 <0>        -0.0794
      2 C2          0.0722   -0.0051   -0.0051 C.2       1 <0>        -0.1881
      3 C3         -0.0903   -0.8272   -1.1331 C.2       1 <0>         0.1267
      4 N1         -0.1024   -2.0824   -0.7331 N.2       1 <0>        -0.2593
      5 N2          0.0514   -2.1050    0.6588 N.pl3     1 <0>        -0.3146
      6 C4          0.1636   -0.8136    1.0903 C.2       1 <0>         0.1108
      7 C5          0.3477   -0.3720    2.4903 C.ar      1 <0>        -0.0245
      8 C6          1.2841    0.6160    2.7958 C.ar      1 <0>        -0.0857
      9 C7          1.4507    1.0237    4.1034 C.ar      1 <0>        -0.1115
     10 C8          0.6914    0.4551    5.1104 C.ar      1 <0>        -0.0876
     11 C9         -0.2389   -0.5251    4.8139 C.ar      1 <0>        -0.1104
     12 C10        -0.4186   -0.9378    3.5097 C.ar      1 <0>        -0.0902
     13 C11         0.8788    0.9048    6.5365 C.3       1 <0>        -0.0745
     14 C12        -0.0661    2.0714    6.8316 C.3       1 <0>        -0.1449
     15 C13         0.1242    2.5281    8.2795 C.3       1 <0>        -0.0110
     16 N3         -0.7830    3.6482    8.5629 N.4       1 <0>        -0.3830
     17 C14        -0.4112    4.7994    7.7317 C.3       1 <0>        -0.0122
     18 C15        -1.4023    5.9420    7.9635 C.3       1 <0>        -0.1462
     19 C16        -1.3714    6.3455    9.4404 C.3       1 <0>        -0.1396
     20 C17        -1.6879    5.1191   10.3012 C.3       1 <0>        -0.1467
     21 C18        -0.6862    4.0071    9.9828 C.3       1 <0>        -0.0068
     22 C19         0.0892   -3.2500    1.4656 C.ar      1 <0>         0.1398
     23 C20         0.9026   -3.2804    2.5909 C.ar      1 <0>        -0.1073
     24 C21         0.9393   -4.4089    3.3853 C.ar      1 <0>        -0.1250
     25 C22         0.1642   -5.5127    3.0595 C.ar      1 <0>         0.1109
     26 C23        -0.6486   -5.4829    1.9354 C.ar      1 <0>        -0.1248
     27 C24        -0.6910   -4.3529    1.1435 C.ar      1 <0>        -0.0911
     28 O1          0.2016   -6.6238    3.8417 O.3       1 <0>        -0.4938
     29 C25        -0.2258   -0.3610   -2.5353 C.ar      1 <0>        -0.0312
     30 C26         0.5767    0.6763   -3.0069 C.ar      1 <0>        -0.0759
     31 C27         0.4485    1.1074   -4.3106 C.ar      1 <0>        -0.1452
     32 C28        -0.4790    0.5095   -5.1529 C.ar      1 <0>         0.1198
     33 C29        -1.2800   -0.5236   -4.6859 C.ar      1 <0>        -0.1448
     34 C30        -1.1517   -0.9635   -3.3850 C.ar      1 <0>        -0.0712
     35 O2         -0.6034    0.9367   -6.4368 O.3       1 <0>        -0.4989
     36 H1          1.1755    1.8174   -0.1294 H         1 <0>         0.0680
     37 H2         -0.4601    1.8907   -0.8278 H         1 <0>         0.0730
     38 H3         -0.2464    1.8819    0.9393 H         1 <0>         0.0637
     39 H4          1.8777    1.0604    2.0106 H         1 <0>         0.1334
     40 H5          2.1755    1.7882    4.3413 H         1 <0>         0.1286
     41 H6         -0.8283   -0.9654    5.6046 H         1 <0>         0.1266
     42 H7         -1.1483   -1.6998    3.2789 H         1 <0>         0.1245
     43 H8          0.6565    0.0777    7.2105 H         1 <0>         0.0847
     44 H9          1.9099    1.2263    6.6835 H         1 <0>         0.0850
     45 H10         0.1563    2.8986    6.1576 H         1 <0>         0.0897
     46 H11        -1.0972    1.7500    6.6846 H         1 <0>         0.0887
     47 H12        -0.0982    1.7009    8.9535 H         1 <0>         0.1316
     48 H13         1.1553    2.8495    8.4265 H         1 <0>         0.1303
     49 H14         0.5927    5.1302    7.9981 H         1 <0>         0.1284
     50 H15        -0.4305    4.5098    6.6810 H         1 <0>         0.1313
     51 H16        -1.1235    6.7964    7.3468 H         1 <0>         0.1118
     52 H17        -2.4066    5.6123    7.6971 H         1 <0>         0.0872
     53 H18        -0.3811    6.7234    9.6944 H         1 <0>         0.0817
     54 H19        -2.1162    7.1204    9.6222 H         1 <0>         0.0941
     55 H20        -1.6132    5.3854   11.3556 H         1 <0>         0.1121
     56 H21        -2.6981    4.7724   10.0834 H         1 <0>         0.0873
     57 H22        -0.9085    3.1324   10.5942 H         1 <0>         0.1297
     58 H23         0.3235    4.3547   10.2012 H         1 <0>         0.1281
     59 H24         1.5065   -2.4217    2.8442 H         1 <0>         0.1333
     60 H25         1.5718   -4.4327    4.2604 H         1 <0>         0.1390
     61 H26        -1.2514   -6.3425    1.6822 H         1 <0>         0.1420
     62 H27        -1.3271   -4.3282    0.2711 H         1 <0>         0.1397
     63 H28        -0.4502   -6.6241    4.5560 H         1 <0>         0.3944
     64 H29         1.2979    1.1423   -2.3519 H         1 <0>         0.1314
     65 H30         1.0701    1.9113   -4.6766 H         1 <0>         0.1353
     66 H31        -2.0012   -0.9864   -5.3432 H         1 <0>         0.1348
     67 H32        -1.7715   -1.7708   -3.0238 H         1 <0>         0.1302
     68 H33        -0.0301    0.4735   -7.0628 H         1 <0>         0.3958
     69 H34        -1.7306    3.3743    8.3501 H         1 <0>         0.4220
@<TRIPOS>BOND
     1    1    2 1
     2    1   36 1
     3    1   37 1
     4    1   38 1
     5    2    6 2
     6    2    3 1
     7    3    4 2
     8    3   29 1
     9    4    5 1
    10    5    6 1
    11    5   22 1
    12    6    7 1
    13    7   12 ar
    14    7    8 ar
    15    8    9 ar
    16    8   39 1
    17    9   10 ar
    18    9   40 1
    19   10   11 ar
    20   10   13 1
    21   11   12 ar
    22   11   41 1
    23   12   42 1
    24   13   14 1
    25   13   43 1
    26   13   44 1
    27   14   15 1
    28   14   45 1
    29   14   46 1
    30   15   16 1
    31   15   47 1
    32   15   48 1
    33   16   21 1
    34   16   17 1
    35   16   69 1
    36   17   18 1
    37   17   49 1
    38   17   50 1
    39   18   19 1
    40   18   51 1
    41   18   52 1
    42   19   20 1
    43   19   53 1
    44   19   54 1
    45   20   21 1
    46   20   55 1
    47   20   56 1
    48   21   57 1
    49   21   58 1
    50   22   27 ar
    51   22   23 ar
    52   23   24 ar
    53   23   59 1
    54   24   25 ar
    55   24   60 1
    56   25   26 ar
    57   25   28 1
    58   26   27 ar
    59   26   61 1
    60   27   62 1
    61   28   63 1
    62   29   34 ar
    63   29   30 ar
    64   30   31 ar
    65   30   64 1
    66   31   32 ar
    67   31   65 1
    68   32   33 ar
    69   32   35 1
    70   33   34 ar
    71   33   66 1
    72   34   67 1
    73   35   68 1
@<TRIPOS>MOLECULE
CHEMBL489585
   61    64     0     0     0
SMALL
USER_CHARGES

@<TRIPOS>ATOM
      1 C1         -6.6984    0.9500    0.3069 C.3       1 <0>        -0.1530
      2 C2         -6.4312   -0.5469    0.4759 C.3       1 <0>        -0.1249
      3 C3         -4.9595   -0.8393    0.1765 C.3       1 <0>        -0.1184
      4 C4         -4.6923   -2.3362    0.3455 C.3       1 <0>        -0.1128
      5 C5         -3.2206   -2.6286    0.0461 C.3       1 <0>        -0.0859
      6 C6         -2.9738   -4.1122    0.1410 C.ar      1 <0>        -0.0478
      7 C7         -2.9915   -4.8675   -0.9881 C.ar      1 <0>        -0.1083
      8 C8         -2.7626   -6.2538   -0.9140 C.ar      1 <0>        -0.0200
      9 C9         -2.7761   -7.0519   -2.0693 C.ar      1 <0>        -0.1404
     10 C10        -2.5501   -8.3954   -1.9659 C.ar      1 <0>         0.1186
     11 C11        -2.3054   -8.9881   -0.7234 C.ar      1 <0>        -0.1411
     12 C12        -2.2857   -8.2425    0.4141 C.ar      1 <0>        -0.0721
     13 C13        -2.5137   -6.8576    0.3443 C.ar      1 <0>        -0.0720
     14 C14        -2.4995   -6.0592    1.5043 C.ar      1 <0>         0.1214
     15 C15        -2.7234   -4.6929    1.3932 C.ar      1 <0>        -0.0490
     16 C16        -2.7041   -3.8430    2.6078 C.ar      1 <0>        -0.0404
     17 C17        -1.6855   -2.9093    2.7924 C.ar      1 <0>        -0.0993
     18 C18        -1.6730   -2.1206    3.9247 C.ar      1 <0>        -0.1171
     19 C19        -2.6684   -2.2554    4.8758 C.ar      1 <0>        -0.1144
     20 C20        -3.6817   -3.1802    4.6981 C.ar      1 <0>        -0.1190
     21 C21        -3.7078   -3.9704    3.5670 C.ar      1 <0>        -0.0930
     22 O1         -2.2636   -6.6183    2.7179 O.3       1 <0>        -0.2514
     23 C22        -0.9780   -6.6945    3.1450 C.ar      1 <0>         0.1074
     24 C23         0.0481   -6.2015    2.3459 C.ar      1 <0>        -0.1858
     25 C24         1.3537   -6.2767    2.7742 C.ar      1 <0>        -0.0789
     26 C25         1.6483   -6.8506    4.0174 C.ar      1 <0>        -0.0614
     27 C26         0.6111   -7.3451    4.8184 C.ar      1 <0>        -0.0835
     28 C27        -0.6914   -7.2603    4.3830 C.ar      1 <0>        -0.1380
     29 C28         3.0397   -6.9339    4.4793 C.2       1 <0>        -0.1143
     30 C29         3.3217   -7.4889    5.6810 C.2       1 <0>        -0.1664
     31 C30         4.6611   -7.5691    6.1256 C.2       1 <0>         0.4998
     32 O2          5.5668   -7.1362    5.4230 O.co2     1 <0>        -0.6958
     33 O3          4.9164   -8.0716    7.2135 O.co2     1 <0>        -0.6994
     34 O4         -2.5636   -9.1656   -3.0852 O.3       1 <0>        -0.5004
     35 H1         -7.7469    1.1583    0.5202 H         1 <0>         0.0521
     36 H2         -6.0687    1.5117    0.9969 H         1 <0>         0.0535
     37 H3         -6.4701    1.2465   -0.7169 H         1 <0>         0.0526
     38 H4         -6.6595   -0.8435    1.4997 H         1 <0>         0.0608
     39 H5         -7.0609   -1.1086   -0.2141 H         1 <0>         0.0596
     40 H6         -4.7312   -0.5428   -0.8473 H         1 <0>         0.0606
     41 H7         -4.3298   -0.2776    0.8665 H         1 <0>         0.0622
     42 H8         -4.9206   -2.6328    1.3693 H         1 <0>         0.0662
     43 H9         -5.3220   -2.8979   -0.3445 H         1 <0>         0.0618
     44 H10        -2.9789   -2.2836   -0.9592 H         1 <0>         0.0739
     45 H11        -2.5924   -2.1088    0.7695 H         1 <0>         0.0812
     46 H12        -3.1819   -4.4031   -1.9444 H         1 <0>         0.1330
     47 H13        -2.9646   -6.6061   -3.0348 H         1 <0>         0.1355
     48 H14        -2.1301  -10.0522   -0.6661 H         1 <0>         0.1323
     49 H15        -2.0955   -8.7131    1.3674 H         1 <0>         0.1354
     50 H16        -0.9074   -2.8037    2.0509 H         1 <0>         0.1204
     51 H17        -0.8843   -1.3969    4.0688 H         1 <0>         0.1232
     52 H18        -2.6542   -1.6365    5.7608 H         1 <0>         0.1207
     53 H19        -4.4561   -3.2813    5.4441 H         1 <0>         0.1216
     54 H20        -4.5018   -4.6889    3.4271 H         1 <0>         0.1197
     55 H21        -0.1801   -5.7591    1.3874 H         1 <0>         0.1206
     56 H22         2.1498   -5.8942    2.1526 H         1 <0>         0.1263
     57 H23         0.8330   -7.7889    5.7777 H         1 <0>         0.1352
     58 H24        -1.4923   -7.6373    5.0018 H         1 <0>         0.1285
     59 H25         3.8380   -6.5523    3.8600 H         1 <0>         0.1274
     60 H26         2.5234   -7.8705    6.3003 H         1 <0>         0.0997
     61 H27        -1.7013   -9.2509   -3.5144 H         1 <0>         0.3927
@<TRIPOS>BOND
     1    1    2 1
     2    1   35 1
     3    1   36 1
     4    1   37 1
     5    2    3 1
     6    2   38 1
     7    2   39 1
     8    3    4 1
     9    3   40 1
    10    3   41 1
    11    4    5 1
    12    4   42 1
    13    4   43 1
    14    5    6 1
    15    5   44 1
    16    5   45 1
    17    6   15 ar
    18    6    7 ar
    19    7    8 ar
    20    7   46 1
    21    8   13 ar
    22    8    9 ar
    23    9   10 ar
    24    9   47 1
    25   10   11 ar
    26   10   34 1
    27   11   12 ar
    28   11   48 1
    29   12   13 ar
    30   12   49 1
    31   13   14 ar
    32   14   15 ar
    33   14   22 1
    34   15   16 1
    35   16   21 ar
    36   16   17 ar
    37   17   18 ar
    38   17   50 1
    39   18   19 ar
    40   18   51 1
    41   19   20 ar
    42   19   52 1
    43   20   21 ar
    44   20   53 1
    45   21   54 1
    46   22   23 1
    47   23   28 ar
    48   23   24 ar
    49   24   25 ar
    50   24   55 1
    51   25   26 ar
    52   25   56 1
    53   26   27 ar
    54   26   29 1
    55   27   28 ar
    56   27   57 1
    57   28   58 1
    58   29   30 2
    59   29   59 1
    60   30   31 1
    61   30   60 1
    62   31   32 2
    63   31   33 1
    64   34   61 1
@<TRIPOS>MOLECULE
CHEMBL44643
   61    65     0     0     0
SMALL
USER_CHARGES

@<TRIPOS>ATOM
      1 C1          0.2207    1.1357    0.7731 C.ar      1 <0>        -0.0166
      2 C2          1.3555    1.9143    0.8208 C.ar      1 <0>        -0.1514
      3 C3          2.6085    1.3292    0.6803 C.ar      1 <0>         0.1525
      4 C4          2.7216   -0.0432    0.4912 C.ar      1 <0>        -0.2140
      5 C5          1.5917   -0.8288    0.4423 C.ar      1 <0>        -0.0193
      6 C6          0.3301   -0.2445    0.5832 C.ar      1 <0>        -0.1951
      7 C7         -0.8842   -1.0833    0.5319 C.2       1 <0>         0.4521
      8 O1         -1.9851   -0.5636    0.5640 O.2       1 <0>        -0.4207
      9 C8         -0.7646   -2.5403    0.4424 C.2       1 <0>        -0.1344
     10 C9         -0.8010   -3.3756    1.6446 C.ar      1 <0>        -0.0825
     11 C10        -0.9443   -2.9660    2.9898 C.ar      1 <0>        -0.0544
     12 C11        -0.9584   -3.8769    3.9993 C.ar      1 <0>        -0.1367
     13 C12        -0.8323   -5.2402    3.7467 C.ar      1 <0>         0.1486
     14 C13        -0.6900   -5.6783    2.4398 C.ar      1 <0>        -0.1032
     15 C14        -0.6755   -4.7586    1.4118 C.ar      1 <0>        -0.0946
     16 S1         -0.5178   -4.8967   -0.3499 S.3       1 <0>         0.1226
     17 C15        -0.6191   -3.1716   -0.7846 C.2       1 <0>        -0.0876
     18 C16        -0.5601   -2.5610   -2.1269 C.ar      1 <0>         0.0234
     19 C17        -0.7792   -1.1885   -2.3038 C.ar      1 <0>        -0.1133
     20 C18        -0.7146   -0.6599   -3.5758 C.ar      1 <0>         0.0877
     21 N1         -0.4507   -1.4281   -4.6169 N.ar      1 <0>        -0.1154
     22 O2         -0.3941   -0.8422   -5.9048 O.3       1 <0>        -0.5304
     23 C19        -0.2375   -2.7255   -4.4946 C.ar      1 <0>         0.0866
     24 C20        -0.2776   -3.3365   -3.2590 C.ar      1 <0>        -0.1031
     25 O3         -0.8481   -6.1326    4.7718 O.3       1 <0>        -0.4900
     26 O4          3.7246    2.1001    0.7274 O.3       1 <0>        -0.3219
     27 C21         4.9826    1.4232    0.6927 C.3       1 <0>         0.0226
     28 C22         6.1129    2.4376    0.8779 C.3       1 <0>        -0.0017
     29 N2          6.0236    3.0309    2.2187 N.4       1 <0>        -0.3848
     30 C23         7.0076    4.1133    2.3398 C.3       1 <0>        -0.0071
     31 C24         6.8640    4.7880    3.7056 C.3       1 <0>        -0.1468
     32 C25         7.1036    3.7526    4.8081 C.3       1 <0>        -0.1392
     33 C26         6.1204    2.5924    4.6276 C.3       1 <0>        -0.1453
     34 C27         6.2916    1.9990    3.2276 C.3       1 <0>        -0.0138
     35 H1         -0.7522    1.5904    0.8868 H         1 <0>         0.1511
     36 H2          1.2718    2.9811    0.9672 H         1 <0>         0.1444
     37 H3          3.6970   -0.4940    0.3821 H         1 <0>         0.1367
     38 H4          1.6804   -1.8951    0.2953 H         1 <0>         0.1377
     39 H5         -1.0436   -1.9153    3.2190 H         1 <0>         0.1294
     40 H6         -1.0693   -3.5358    5.0180 H         1 <0>         0.1415
     41 H7         -0.5907   -6.7326    2.2276 H         1 <0>         0.1465
     42 H8         -0.9959   -0.5543   -1.4570 H         1 <0>         0.1590
     43 H9         -0.8824    0.3968   -3.7226 H         1 <0>         0.1892
     44 H10        -0.0246   -3.3155   -5.3738 H         1 <0>         0.1931
     45 H11        -0.0977   -4.3973   -3.1659 H         1 <0>         0.1692
     46 H12        -1.7305   -6.4585    4.9959 H         1 <0>         0.4028
     47 H13         5.0209    0.6862    1.4949 H         1 <0>         0.0897
     48 H14         5.0987    0.9212   -0.2678 H         1 <0>         0.1133
     49 H15         7.0738    1.9354    0.7660 H         1 <0>         0.1511
     50 H16         6.0235    3.2224    0.1266 H         1 <0>         0.1446
     51 H17         8.0126    3.7027    2.2417 H         1 <0>         0.1298
     52 H18         6.8378    4.8478    1.5525 H         1 <0>         0.1317
     53 H19         7.5966    5.5902    3.7942 H         1 <0>         0.1137
     54 H20         5.8594    5.1992    3.8046 H         1 <0>         0.0881
     55 H21         8.1252    3.3784    4.7410 H         1 <0>         0.0824
     56 H22         6.9469    4.2149    5.7827 H         1 <0>         0.0951
     57 H23         6.3216    1.8251    5.3752 H         1 <0>         0.1127
     58 H24         5.1004    2.9580    4.7457 H         1 <0>         0.0878
     59 H25         5.5932    1.1726    3.0958 H         1 <0>         0.1265
     60 H26         7.3118    1.6335    3.1107 H         1 <0>         0.1312
     61 H27         5.0968    3.4044    2.3591 H         1 <0>         0.4287
@<TRIPOS>BOND
     1    1    6 ar
     2    1    2 ar
     3    1   35 1
     4    2    3 ar
     5    2   36 1
     6    3    4 ar
     7    3   26 1
     8    4    5 ar
     9    4   37 1
    10    5    6 ar
    11    5   38 1
    12    6    7 1
    13    7    8 2
    14    7    9 1
    15    9   17 2
    16    9   10 1
    17   10   15 ar
    18   10   11 ar
    19   11   12 ar
    20   11   39 1
    21   12   13 ar
    22   12   40 1
    23   13   14 ar
    24   13   25 1
    25   14   15 ar
    26   14   41 1
    27   15   16 1
    28   16   17 1
    29   17   18 1
    30   18   24 ar
    31   18   19 ar
    32   19   20 ar
    33   19   42 1
    34   20   21 ar
    35   20   43 1
    36   21   22 1
    37   21   23 ar
    38   23   24 ar
    39   23   44 1
    40   24   45 1
    41   25   46 1
    42   26   27 1
    43   27   28 1
    44   27   47 1
    45   27   48 1
    46   28   29 1
    47   28   49 1
    48   28   50 1
    49   29   34 1
    50   29   30 1
    51   29   61 1
    52   30   31 1
    53   30   51 1
    54   30   52 1
    55   31   32 1
    56   31   53 1
    57   31   54 1
    58   32   33 1
    59   32   55 1
    60   32   56 1
    61   33   34 1
    62   33   57 1
    63   33   58 1
    64   34   59 1
    65   34   60 1
@<TRIPOS>MOLECULE
CHEMBL431611
   65    69     0     0     0
SMALL
USER_CHARGES

@<TRIPOS>ATOM
      1 C1         -0.2029    2.3859   -1.8457 C.ar      1 <0>        -0.0609
      2 C2          0.8127    3.2023   -2.3044 C.ar      1 <0>        -0.1382
      3 C3          2.0768    2.6760   -2.5275 C.ar      1 <0>         0.1215
      4 C4          2.3175    1.3307   -2.2893 C.ar      1 <0>        -0.2021
      5 C5          1.2985    0.5185   -1.8307 C.ar      1 <0>        -0.0476
      6 C6          0.0395    1.0454   -1.6091 C.ar      1 <0>        -0.0992
      7 C7         -1.0702    0.1572   -1.1084 C.3       1 <0>         0.1434
      8 H1         -1.7782    0.7499   -0.5291 H         1 <0>         0.0929
      9 C8         -1.7940   -0.4850   -2.3037 C.3       1 <0>        -0.1018
     10 H2         -2.1313    0.2885   -2.9935 H         1 <0>         0.1318
     11 S1         -3.2260   -1.3887   -1.6352 S.3       1 <0>        -0.0820
     12 C9         -2.5465   -2.1921   -0.2162 C.ar      1 <0>        -0.1424
     13 C10        -3.2735   -3.2025    0.3994 C.ar      1 <0>        -0.0915
     14 C11        -2.7661   -3.8423    1.5186 C.ar      1 <0>         0.0978
     15 C12        -1.5295   -3.4659    2.0221 C.ar      1 <0>        -0.1081
     16 C13        -0.8058   -2.4637    1.4096 C.ar      1 <0>        -0.1156
     17 C14        -1.3024   -1.8184    0.2794 C.ar      1 <0>         0.1254
     18 O1         -0.5260   -0.8663   -0.2892 O.3       1 <0>        -0.3089
     19 O2         -3.4765   -4.8333    2.1204 O.3       1 <0>        -0.4922
     20 C15        -0.8537   -1.4530   -3.0246 C.3       1 <0>        -0.0828
     21 C16        -1.1240   -1.4199   -4.5430 C.3       1 <0>        -0.1154
     22 C17        -0.9409   -2.8905   -4.9936 C.3       1 <0>        -0.1241
     23 C18        -1.5509   -3.6878   -3.8141 C.3       1 <0>        -0.1178
     24 C19        -1.1252   -2.8950   -2.5611 C.3       1 <0>        -0.1540
     25 O3          3.0775    3.4770   -2.9791 O.3       1 <0>        -0.3282
     26 C20         4.3531    2.8671   -3.1865 C.3       1 <0>         0.0254
     27 C21         5.3444    3.9173   -3.6919 C.3       1 <0>        -0.0006
     28 N1          5.4972    4.9726   -2.6815 N.4       1 <0>        -0.3840
     29 C22         6.2971    6.0697   -3.2392 C.3       1 <0>        -0.0071
     30 C23         6.3913    7.2068   -2.2195 C.3       1 <0>        -0.1467
     31 C24         7.0566    6.6860   -0.9423 C.3       1 <0>        -0.1390
     32 C25         6.2551    5.4944   -0.4104 C.3       1 <0>        -0.1454
     33 C26         6.1659    4.4207   -1.4971 C.3       1 <0>        -0.0126
     34 H3         -1.1860    2.7960   -1.6676 H         1 <0>         0.1398
     35 H4          0.6228    4.2492   -2.4894 H         1 <0>         0.1378
     36 H5          3.3006    0.9185   -2.4626 H         1 <0>         0.1302
     37 H6          1.4853   -0.5289   -1.6451 H         1 <0>         0.1382
     38 H7         -4.2366   -3.4906    0.0045 H         1 <0>         0.1400
     39 H8         -1.1321   -3.9589    2.8970 H         1 <0>         0.1412
     40 H9          0.1554   -2.1771    1.8099 H         1 <0>         0.1386
     41 H10        -3.2892   -5.7169    1.7752 H         1 <0>         0.3943
     42 H11         0.1835   -1.1852   -2.8233 H         1 <0>         0.0861
     43 H12        -2.1416   -1.0838   -4.7421 H         1 <0>         0.0685
     44 H13        -0.4030   -0.7746   -5.0448 H         1 <0>         0.0631
     45 H14        -1.4900   -3.0834   -5.9152 H         1 <0>         0.0681
     46 H15         0.1158   -3.1285   -5.1152 H         1 <0>         0.0642
     47 H16        -2.6375   -3.7180   -3.8955 H         1 <0>         0.0697
     48 H17        -1.1415   -4.6976   -3.7840 H         1 <0>         0.0627
     49 H18        -0.2195   -3.3272   -2.1357 H         1 <0>         0.0577
     50 H19        -1.9268   -2.9052   -1.8226 H         1 <0>         0.0960
     51 H20         4.7136    2.4499   -2.2462 H         1 <0>         0.0872
     52 H21         4.2594    2.0709   -3.9250 H         1 <0>         0.1100
     53 H22         6.3104    3.4467   -3.8748 H         1 <0>         0.1492
     54 H23         4.9711    4.3529   -4.6187 H         1 <0>         0.1424
     55 H24         7.2983    5.7070   -3.4718 H         1 <0>         0.1292
     56 H25         5.8241    6.4372   -4.1498 H         1 <0>         0.1310
     57 H26         6.9871    8.0196   -2.6348 H         1 <0>         0.1132
     58 H27         5.3905    7.5704   -1.9864 H         1 <0>         0.0880
     59 H28         8.0756    6.3695   -1.1651 H         1 <0>         0.0821
     60 H29         7.0750    7.4768   -0.1924 H         1 <0>         0.0948
     61 H30         6.7535    5.0832    0.4675 H         1 <0>         0.1124
     62 H31         5.2515    5.8225   -0.1397 H         1 <0>         0.0879
     63 H32         5.5960    3.5708   -1.1216 H         1 <0>         0.1270
     64 H33         7.1699    4.0932   -1.7668 H         1 <0>         0.1302
     65 H34         4.5871    5.3214   -2.4206 H         1 <0>         0.4295
@<TRIPOS>BOND
     1    1    6 ar
     2    1    2 ar
     3    1   34 1
     4    2    3 ar
     5    2   35 1
     6    3    4 ar
     7    3   25 1
     8    4    5 ar
     9    4   36 1
    10    5    6 ar
    11    5   37 1
    12    6    7 1
    13    7    8 1
    14    7   18 1
    15    7    9 1
    16    9   10 1
    17    9   11 1
    18    9   20 1
    19   11   12 1
    20   12   17 ar
    21   12   13 ar
    22   13   14 ar
    23   13   38 1
    24   14   15 ar
    25   14   19 1
    26   15   16 ar
    27   15   39 1
    28   16   17 ar
    29   16   40 1
    30   17   18 1
    31   19   41 1
    32   20   24 1
    33   20   21 1
    34   20   42 1
    35   21   22 1
    36   21   43 1
    37   21   44 1
    38   22   23 1
    39   22   45 1
    40   22   46 1
    41   23   24 1
    42   23   47 1
    43   23   48 1
    44   24   49 1
    45   24   50 1
    46   25   26 1
    47   26   27 1
    48   26   51 1
    49   26   52 1
    50   27   28 1
    51   27   53 1
    52   27   54 1
    53   28   33 1
    54   28   29 1
    55   28   65 1
    56   29   30 1
    57   29   55 1
    58   29   56 1
    59   30   31 1
    60   30   57 1
    61   30   58 1
    62   31   32 1
    63   31   59 1
    64   31   60 1
    65   32   33 1
    66   32   61 1
    67   32   62 1
    68   33   63 1
    69   33   64 1
@<TRIPOS>MOLECULE
CHEMBL214291
   44    48     0     0     0
SMALL
USER_CHARGES

@<TRIPOS>ATOM
      1 C1         -0.0184    1.5028    0.0103 C.3       1 <0>        -0.1114
      2 C2          0.0021   -0.0041    0.0020 C.2       1 <0>        -0.1778
      3 C3         -1.1502   -0.7072    0.0036 C.2       1 <0>         0.0098
      4 C4         -2.5305   -0.2289    0.1424 C.ar      1 <0>        -0.0652
      5 C5         -3.0963    1.0372   -0.1453 C.ar      1 <0>        -0.0703
      6 C6         -4.3954    1.3136    0.1029 C.ar      1 <0>        -0.0661
      7 C7         -5.2300    0.3260    0.6610 C.ar      1 <0>         0.0414
      8 C8         -4.6708   -1.0057    0.9384 C.ar      1 <0>         0.0347
      9 C9         -3.3231   -1.2559    0.6417 C.ar      1 <0>        -0.0100
     10 C10        -2.5094   -2.5323    0.7147 C.3       1 <0>        -0.0771
     11 C11        -1.2267   -2.2234   -0.0769 C.3       1 <0>        -0.0314
     12 C12         0.0025   -2.7820    0.6457 C.3       1 <0>        -0.1077
     13 C13         1.2582   -2.2105   -0.0211 C.3       1 <0>        -0.1699
     14 C14         1.2265   -0.7063   -0.0134 C.2       1 <0>         0.3920
     15 O1          2.2711   -0.0864   -0.0166 O.2       1 <0>        -0.4572
     16 C15        -1.3238   -2.7111   -1.5238 C.3       1 <0>        -0.0598
     17 C16        -1.3966   -4.2162   -1.5428 C.ar      1 <0>        -0.0899
     18 C17        -0.2351   -4.9631   -1.6067 C.ar      1 <0>        -0.0858
     19 C18        -0.3006   -6.3435   -1.6237 C.ar      1 <0>        -0.1498
     20 C19        -1.5302   -6.9783   -1.5767 C.ar      1 <0>         0.0976
     21 C20        -2.6929   -6.2291   -1.5127 C.ar      1 <0>        -0.1495
     22 C21        -2.6246   -4.8490   -1.4905 C.ar      1 <0>        -0.0861
     23 F1         -1.5955   -8.3276   -1.5938 F         1 <0>        -0.1392
     24 N1         -5.6810   -1.6959    1.4481 N.2       1 <0>        -0.2606
     25 N2         -6.7201   -0.9371    1.4936 N.pl3     1 <0>        -0.1925
     26 N3         -6.4933    0.2472    1.0431 N.2       1 <0>        -0.2694
     27 H1         -7.5821   -1.2272    1.8308 H         1 <0>         0.4748
     28 H2          1.0042    1.8801    0.0026 H         1 <0>         0.0776
     29 H3         -0.5455    1.8639   -0.8728 H         1 <0>         0.0726
     30 H4         -0.5286    1.8543    0.9071 H         1 <0>         0.0721
     31 H5         -2.4705    1.8050   -0.5756 H         1 <0>         0.1407
     32 H6         -4.7934    2.2911   -0.1262 H         1 <0>         0.1434
     33 H7         -2.2682   -2.7702    1.7507 H         1 <0>         0.0966
     34 H8         -3.0525   -3.3560    0.2515 H         1 <0>         0.0967
     35 H9         -0.0227   -2.4854    1.6943 H         1 <0>         0.0785
     36 H10         0.0097   -3.8693    0.5694 H         1 <0>         0.0881
     37 H11         2.1403   -2.5562    0.5179 H         1 <0>         0.0998
     38 H12         1.3082   -2.5600   -1.0524 H         1 <0>         0.1021
     39 H13        -2.2199   -2.2981   -1.9870 H         1 <0>         0.0849
     40 H14        -0.4443   -2.3829   -2.0777 H         1 <0>         0.0850
     41 H15         0.7239   -4.4678   -1.6437 H         1 <0>         0.1338
     42 H16         0.6069   -6.9268   -1.6740 H         1 <0>         0.1367
     43 H17        -3.6526   -6.7232   -1.4764 H         1 <0>         0.1356
     44 H18        -3.5312   -4.2645   -1.4361 H         1 <0>         0.1324
@<TRIPOS>BOND
     1    1    2 1
     2    1   28 1
     3    1   29 1
     4    1   30 1
     5    2   14 1
     6    2    3 2
     7    3   11 1
     8    3    4 1
     9    4    9 ar
    10    4    5 ar
    11    5    6 ar
    12    5   31 1
    13    6    7 ar
    14    6   32 1
    15    7    8 ar
    16    7   26 2
    17    8    9 ar
    18    8   24 2
    19    9   10 1
    20   10   11 1
    21   10   33 1
    22   10   34 1
    23   11   12 1
    24   11   16 1
    25   12   13 1
    26   12   35 1
    27   12   36 1
    28   13   14 1
    29   13   37 1
    30   13   38 1
    31   14   15 2
    32   16   17 1
    33   16   39 1
    34   16   40 1
    35   17   22 ar
    36   17   18 ar
    37   18   19 ar
    38   18   41 1
    39   19   20 ar
    40   19   42 1
    41   20   21 ar
    42   20   23 1
    43   21   22 ar
    44   21   43 1
    45   22   44 1
    46   24   25 1
    47   25   27 1
    48   25   26 1
@<TRIPOS>MOLECULE
CHEMBL214291__1
   44    48     0     0     0
SMALL
USER_CHARGES

@<TRIPOS>ATOM
      1 C1         -0.0184    1.5028    0.0103 C.3       1 <0>        -0.1135
      2 C2          0.0021   -0.0041    0.0020 C.2       1 <0>        -0.1696
      3 C3         -1.1502   -0.7069    0.0036 C.2       1 <0>         0.0031
      4 C4         -2.5298   -0.2303    0.1420 C.ar      1 <0>        -0.0457
      5 C5         -3.1053    1.0271   -0.1291 C.ar      1 <0>        -0.0852
      6 C6         -4.4167    1.2641    0.1378 C.ar      1 <0>        -0.0512
      7 C7         -5.2156    0.2513    0.6812 C.ar      1 <0>         0.0266
      8 C8         -4.6630   -1.0224    0.9217 C.ar      1 <0>         0.0379
      9 C9         -3.3287   -1.2651    0.6368 C.ar      1 <0>        -0.0583
     10 C10        -2.5094   -2.5376    0.7109 C.3       1 <0>        -0.0797
     11 C11        -1.2256   -2.2234   -0.0767 C.3       1 <0>        -0.0283
     12 C12         0.0031   -2.7813    0.6472 C.3       1 <0>        -0.1080
     13 C13         1.2592   -2.2105   -0.0195 C.3       1 <0>        -0.1701
     14 C14         1.2270   -0.7062   -0.0134 C.2       1 <0>         0.3909
     15 O1          2.2713   -0.0861   -0.0179 O.2       1 <0>        -0.4535
     16 C15        -1.3181   -2.7102   -1.5242 C.3       1 <0>        -0.0608
     17 C16        -1.3901   -4.2153   -1.5444 C.ar      1 <0>        -0.0900
     18 C17        -0.2279   -4.9616   -1.6054 C.ar      1 <0>        -0.0854
     19 C18        -0.2926   -6.3419   -1.6235 C.ar      1 <0>        -0.1486
     20 C19        -1.5220   -6.9775   -1.5805 C.ar      1 <0>         0.0986
     21 C20        -2.6853   -6.2290   -1.5195 C.ar      1 <0>        -0.1500
     22 C21        -2.6179   -4.8489   -1.4962 C.ar      1 <0>        -0.0888
     23 F1         -1.5865   -8.3268   -1.5986 F         1 <0>        -0.1382
     24 N1         -5.6950   -1.7725    1.4325 N.pl3     1 <0>        -0.4148
     25 N2         -6.7402   -1.0224    1.4985 N.2       1 <0>        -0.0066
     26 N3         -6.5023    0.1673    1.0709 N.2       1 <0>        -0.2475
     27 H1         -5.6451   -2.7044    1.6969 H         1 <0>         0.4534
     28 H2          1.0042    1.8801    0.0026 H         1 <0>         0.0789
     29 H3         -0.5455    1.8639   -0.8728 H         1 <0>         0.0740
     30 H4         -0.5286    1.8543    0.9071 H         1 <0>         0.0736
     31 H5         -2.4969    1.8119   -0.5536 H         1 <0>         0.1431
     32 H6         -4.8425    2.2348   -0.0693 H         1 <0>         0.1469
     33 H7         -2.2703   -2.7754    1.7474 H         1 <0>         0.0950
     34 H8         -3.0477   -3.3633    0.2455 H         1 <0>         0.0928
     35 H9         -0.0227   -2.4837    1.6955 H         1 <0>         0.0784
     36 H10         0.0104   -3.8687    0.5719 H         1 <0>         0.0882
     37 H11         2.1410   -2.5553    0.5206 H         1 <0>         0.1009
     38 H12         1.3099   -2.5611   -1.0503 H         1 <0>         0.1027
     39 H13        -2.2131   -2.2974   -1.9898 H         1 <0>         0.0850
     40 H14        -0.4371   -2.3811   -2.0752 H         1 <0>         0.0858
     41 H15         0.7309   -4.4657   -1.6392 H         1 <0>         0.1342
     42 H16         0.6154   -6.9247   -1.6714 H         1 <0>         0.1376
     43 H17        -3.6448   -6.7236   -1.4863 H         1 <0>         0.1360
     44 H18        -3.5249   -4.2649   -1.4441 H         1 <0>         0.1307
@<TRIPOS>BOND
     1    1    2 1
     2    1   28 1
     3    1   29 1
     4    1   30 1
     5    2   14 1
     6    2    3 2
     7    3   11 1
     8    3    4 1
     9    4    9 ar
    10    4    5 ar
    11    5    6 ar
    12    5   31 1
    13    6    7 ar
    14    6   32 1
    15    7    8 ar
    16    7   26 1
    17    8    9 ar
    18    8   24 1
    19    9   10 1
    20   10   11 1
    21   10   33 1
    22   10   34 1
    23   11   12 1
    24   11   16 1
    25   12   13 1
    26   12   35 1
    27   12   36 1
    28   13   14 1
    29   13   37 1
    30   13   38 1
    31   14   15 2
    32   16   17 1
    33   16   39 1
    34   16   40 1
    35   17   22 ar
    36   17   18 ar
    37   18   19 ar
    38   18   41 1
    39   19   20 ar
    40   19   42 1
    41   20   21 ar
    42   20   23 1
    43   21   22 ar
    44   21   43 1
    45   22   44 1
    46   24   27 1
    47   24   25 1
    48   25   26 2
@<TRIPOS>MOLECULE
CHEMBL214291__2
   44    48     0     0     0
SMALL
USER_CHARGES

@<TRIPOS>ATOM
      1 C1         -0.0184    1.5028    0.0103 C.3       1 <0>        -0.1106
      2 C2          0.0021   -0.0041    0.0020 C.2       1 <0>        -0.1813
      3 C3         -1.1500   -0.7067    0.0036 C.2       1 <0>         0.0146
      4 C4         -2.5301   -0.2304    0.1430 C.ar      1 <0>        -0.1002
      5 C5         -3.1055    1.0273   -0.1262 C.ar      1 <0>        -0.0316
      6 C6         -4.4182    1.2619    0.1427 C.ar      1 <0>        -0.1286
      7 C7         -5.2159    0.2534    0.6802 C.ar      1 <0>         0.1096
      8 C8         -4.6735   -1.0222    0.9226 C.ar      1 <0>        -0.0122
      9 C9         -3.3274   -1.2634    0.6356 C.ar      1 <0>         0.0198
     10 C10        -2.5100   -2.5368    0.7103 C.3       1 <0>        -0.0813
     11 C11        -1.2255   -2.2234   -0.0768 C.3       1 <0>        -0.0320
     12 C12         0.0027   -2.7811    0.6479 C.3       1 <0>        -0.1079
     13 C13         1.2591   -2.2104   -0.0181 C.3       1 <0>        -0.1699
     14 C14         1.2268   -0.7061   -0.0134 C.2       1 <0>         0.3924
     15 O1          2.2711   -0.0860   -0.0182 O.2       1 <0>        -0.4576
     16 C15        -1.3174   -2.7103   -1.5244 C.3       1 <0>        -0.0595
     17 C16        -1.3895   -4.2154   -1.5445 C.ar      1 <0>        -0.0912
     18 C17        -0.2275   -4.9618   -1.6048 C.ar      1 <0>        -0.0861
     19 C18        -0.2923   -6.3421   -1.6228 C.ar      1 <0>        -0.1501
     20 C19        -1.5218   -6.9775   -1.5804 C.ar      1 <0>         0.0981
     21 C20        -2.6850   -6.2289   -1.5200 C.ar      1 <0>        -0.1487
     22 C21        -2.6174   -4.8488   -1.4968 C.ar      1 <0>        -0.0858
     23 F1         -1.5864   -8.3268   -1.5985 F         1 <0>        -0.1390
     24 N1         -5.6632   -1.7983    1.4262 N.2       1 <0>        -0.2049
     25 N2         -6.7528   -1.1209    1.5194 N.2       1 <0>         0.0029
     26 N3         -6.5321    0.1867    1.0636 N.pl3     1 <0>        -0.4951
     27 H1         -7.1831    0.9048    1.0267 H         1 <0>         0.4509
     28 H2          1.0042    1.8801    0.0026 H         1 <0>         0.0780
     29 H3         -0.5455    1.8639   -0.8728 H         1 <0>         0.0710
     30 H4         -0.5286    1.8543    0.9071 H         1 <0>         0.0710
     31 H5         -2.4980    1.8133   -0.5499 H         1 <0>         0.1440
     32 H6         -4.8440    2.2332   -0.0616 H         1 <0>         0.1410
     33 H7         -2.2717   -2.7748    1.7469 H         1 <0>         0.1009
     34 H8         -3.0490   -3.3618    0.2445 H         1 <0>         0.1010
     35 H9         -0.0238   -2.4833    1.6961 H         1 <0>         0.0787
     36 H10         0.0100   -3.8685    0.5729 H         1 <0>         0.0888
     37 H11         2.1406   -2.5548    0.5227 H         1 <0>         0.1001
     38 H12         1.3105   -2.5615   -1.0488 H         1 <0>         0.1021
     39 H13        -2.2121   -2.2974   -1.9904 H         1 <0>         0.0842
     40 H14        -0.4361   -2.3814   -2.0750 H         1 <0>         0.0847
     41 H15         0.7314   -4.4660   -1.6382 H         1 <0>         0.1334
     42 H16         0.6156   -6.9250   -1.6703 H         1 <0>         0.1366
     43 H17        -3.6446   -6.7234   -1.4873 H         1 <0>         0.1365
     44 H18        -3.5244   -4.2647   -1.4452 H         1 <0>         0.1331
@<TRIPOS>BOND
     1    1    2 1
     2    1   28 1
     3    1   29 1
     4    1   30 1
     5    2   14 1
     6    2    3 2
     7    3   11 1
     8    3    4 1
     9    4    9 ar
    10    4    5 ar
    11    5    6 ar
    12    5   31 1
    13    6    7 ar
    14    6   32 1
    15    7   26 1
    16    7    8 ar
    17    8    9 ar
    18    8   24 1
    19    9   10 1
    20   10   11 1
    21   10   33 1
    22   10   34 1
    23   11   12 1
    24   11   16 1
    25   12   13 1
    26   12   35 1
    27   12   36 1
    28   13   14 1
    29   13   37 1
    30   13   38 1
    31   14   15 2
    32   16   17 1
    33   16   39 1
    34   16   40 1
    35   17   22 ar
    36   17   18 ar
    37   18   19 ar
    38   18   41 1
    39   19   20 ar
    40   19   42 1
    41   20   21 ar
    42   20   23 1
    43   21   22 ar
    44   21   43 1
    45   22   44 1
    46   24   25 2
    47   25   26 1
    48   26   27 1
@<TRIPOS>MOLECULE
CHEMBL214291__3
   44    48     0     0     0
SMALL
USER_CHARGES

@<TRIPOS>ATOM
      1 C1         -0.0184    1.5028    0.0103 C.3       1 <0>        -0.1114
      2 C2          0.0021   -0.0041    0.0020 C.2       1 <0>        -0.1779
      3 C3         -1.1502   -0.7072    0.0036 C.2       1 <0>         0.0099
      4 C4         -2.5318   -0.2275   -0.1166 C.ar      1 <0>        -0.0652
      5 C5         -3.0946    1.0355    0.1902 C.ar      1 <0>        -0.0702
      6 C6         -4.3959    1.3147   -0.0429 C.ar      1 <0>        -0.0662
      7 C7         -5.2359    0.3333   -0.6041 C.ar      1 <0>         0.0415
      8 C8         -4.6795   -0.9953   -0.9012 C.ar      1 <0>         0.0346
      9 C9         -3.3292   -1.2489   -0.6197 C.ar      1 <0>        -0.0100
     10 C10        -2.5162   -2.5243   -0.7148 C.3       1 <0>        -0.0772
     11 C11        -1.2260   -2.2242    0.0679 C.3       1 <0>        -0.0313
     12 C12        -0.0038   -2.7746   -0.6726 C.3       1 <0>        -0.1079
     13 C13         1.2583   -2.2106   -0.0115 C.3       1 <0>        -0.1699
     14 C14         1.2265   -0.7063   -0.0134 C.2       1 <0>         0.3921
     15 O1          2.2710   -0.0864   -0.0236 O.2       1 <0>        -0.4571
     16 C15        -1.3093   -2.7281    1.5101 C.3       1 <0>        -0.0598
     17 C16        -1.3820   -4.2333    1.5130 C.ar      1 <0>        -0.0899
     18 C17        -2.6102   -4.8655    1.4596 C.ar      1 <0>        -0.0861
     19 C18        -2.6781   -6.2459    1.4617 C.ar      1 <0>        -0.1496
     20 C19        -1.5154   -6.9956    1.5173 C.ar      1 <0>         0.0976
     21 C20        -0.2858   -6.3612    1.5707 C.ar      1 <0>        -0.1498
     22 C21        -0.2202   -4.9808    1.5632 C.ar      1 <0>        -0.0858
     23 F1         -1.5806   -8.3450    1.5199 F         1 <0>        -0.1392
     24 N1         -5.6945   -1.6798   -1.4091 N.2       1 <0>        -0.2605
     25 N2         -6.7338   -0.9205   -1.4366 N.pl3     1 <0>        -0.1925
     26 N3         -6.5026    0.2588   -0.9753 N.2       1 <0>        -0.2695
     27 H1         -7.5987   -1.2064   -1.7699 H         1 <0>         0.4748
     28 H2          1.0042    1.8801    0.0026 H         1 <0>         0.0776
     29 H3         -0.5455    1.8639   -0.8728 H         1 <0>         0.0721
     30 H4         -0.5286    1.8543    0.9071 H         1 <0>         0.0726
     31 H5         -2.4648    1.7983    0.6238 H         1 <0>         0.1407
     32 H6         -4.7917    2.2894    0.2012 H         1 <0>         0.1434
     33 H7         -3.0549   -3.3531   -0.2556 H         1 <0>         0.0968
     34 H8         -2.2850   -2.7506   -1.7557 H         1 <0>         0.0966
     35 H9          0.0041   -3.8627   -0.6086 H         1 <0>         0.0880
     36 H10        -0.0390   -2.4663   -1.7175 H         1 <0>         0.0783
     37 H11         1.3181   -2.5715    1.0152 H         1 <0>         0.1028
     38 H12         2.1351   -2.5501   -0.5629 H         1 <0>         0.0993
     39 H13        -0.4245   -2.4060    2.0592 H         1 <0>         0.0850
     40 H14        -2.2009   -2.3203    1.9865 H         1 <0>         0.0849
     41 H15        -3.5171   -4.2806    1.4166 H         1 <0>         0.1324
     42 H16        -3.6378   -6.7396    1.4204 H         1 <0>         0.1356
     43 H17         0.6217   -6.9450    1.6144 H         1 <0>         0.1367
     44 H18         0.7390   -4.4858    1.6004 H         1 <0>         0.1338
@<TRIPOS>BOND
     1    1    2 1
     2    1   28 1
     3    1   29 1
     4    1   30 1
     5    2   14 1
     6    2    3 2
     7    3   11 1
     8    3    4 1
     9    4    9 ar
    10    4    5 ar
    11    5    6 ar
    12    5   31 1
    13    6    7 ar
    14    6   32 1
    15    7    8 ar
    16    7   26 2
    17    8    9 ar
    18    8   24 2
    19    9   10 1
    20   10   11 1
    21   10   33 1
    22   10   34 1
    23   11   12 1
    24   11   16 1
    25   12   13 1
    26   12   35 1
    27   12   36 1
    28   13   14 1
    29   13   37 1
    30   13   38 1
    31   14   15 2
    32   16   17 1
    33   16   39 1
    34   16   40 1
    35   17   22 ar
    36   17   18 ar
    37   18   19 ar
    38   18   41 1
    39   19   20 ar
    40   19   42 1
    41   20   21 ar
    42   20   23 1
    43   21   22 ar
    44   21   43 1
    45   22   44 1
    46   24   25 1
    47   25   27 1
    48   25   26 1
@<TRIPOS>MOLECULE
CHEMBL214291__4
   44    48     0     0     0
SMALL
USER_CHARGES

@<TRIPOS>ATOM
      1 C1         -0.0184    1.5028    0.0103 C.3       1 <0>        -0.1106
      2 C2          0.0021   -0.0041    0.0020 C.2       1 <0>        -0.1814
      3 C3         -1.1500   -0.7067    0.0036 C.2       1 <0>         0.0146
      4 C4         -2.5313   -0.2289   -0.1172 C.ar      1 <0>        -0.1002
      5 C5         -3.1041    1.0257    0.1714 C.ar      1 <0>        -0.0316
      6 C6         -4.4193    1.2631   -0.0822 C.ar      1 <0>        -0.1286
      7 C7         -5.2219    0.2609   -0.6242 C.ar      1 <0>         0.1097
      8 C8         -4.6819   -1.0118   -0.8860 C.ar      1 <0>        -0.0122
      9 C9         -3.3333   -1.2564   -0.6137 C.ar      1 <0>         0.0198
     10 C10        -2.5168   -2.5288   -0.7104 C.3       1 <0>        -0.0814
     11 C11        -1.2248   -2.2242    0.0678 C.3       1 <0>        -0.0319
     12 C12        -0.0036   -2.7737   -0.6749 C.3       1 <0>        -0.1081
     13 C13         1.2591   -2.2104   -0.0145 C.3       1 <0>        -0.1699
     14 C14         1.2268   -0.7061   -0.0134 C.2       1 <0>         0.3925
     15 O1          2.2710   -0.0860   -0.0216 O.2       1 <0>        -0.4576
     16 C15        -1.3029   -2.7272    1.5106 C.3       1 <0>        -0.0595
     17 C16        -1.3749   -4.2325    1.5146 C.ar      1 <0>        -0.0912
     18 C17        -2.6030   -4.8654    1.4658 C.ar      1 <0>        -0.0859
     19 C18        -2.6703   -6.2457    1.4689 C.ar      1 <0>        -0.1486
     20 C19        -1.5070   -6.9948    1.5209 C.ar      1 <0>         0.0980
     21 C20        -0.2775   -6.3599    1.5698 C.ar      1 <0>        -0.1500
     22 C21        -0.2126   -4.9795    1.5612 C.ar      1 <0>        -0.0860
     23 F1         -1.5715   -8.3443    1.5245 F         1 <0>        -0.1390
     24 N1         -5.6762   -1.7819   -1.3897 N.2       1 <0>        -0.2049
     25 N2         -6.7664   -1.1034   -1.4656 N.2       1 <0>         0.0029
     26 N3         -6.5414    0.1989   -0.9967 N.pl3     1 <0>        -0.4951
     27 H1         -7.1921    0.9163   -0.9451 H         1 <0>         0.4509
     28 H2          1.0042    1.8801    0.0026 H         1 <0>         0.0780
     29 H3         -0.5455    1.8639   -0.8728 H         1 <0>         0.0710
     30 H4         -0.5286    1.8543    0.9071 H         1 <0>         0.0711
     31 H5         -2.4927    1.8067    0.5988 H         1 <0>         0.1440
     32 H6         -4.8430    2.2321    0.1370 H         1 <0>         0.1410
     33 H7         -3.0514   -3.3591   -0.2488 H         1 <0>         0.1011
     34 H8         -2.2884   -2.7552   -1.7519 H         1 <0>         0.1008
     35 H9          0.0043   -3.8619   -0.6121 H         1 <0>         0.0887
     36 H10        -0.0401   -2.4642   -1.7194 H         1 <0>         0.0786
     37 H11         1.3204   -2.5730    1.0116 H         1 <0>         0.1028
     38 H12         2.1354   -2.5487   -0.5675 H         1 <0>         0.0996
     39 H13        -0.4164   -2.4044    2.0564 H         1 <0>         0.0848
     40 H14        -2.1931   -2.3197    1.9898 H         1 <0>         0.0843
     41 H15        -3.5103   -4.2808    1.4256 H         1 <0>         0.1331
     42 H16        -3.6298   -6.7399    1.4312 H         1 <0>         0.1365
     43 H17         0.6305   -6.9432    1.6107 H         1 <0>         0.1366
     44 H18         0.7465   -4.4840    1.5948 H         1 <0>         0.1334
@<TRIPOS>BOND
     1    1    2 1
     2    1   28 1
     3    1   29 1
     4    1   30 1
     5    2   14 1
     6    2    3 2
     7    3   11 1
     8    3    4 1
     9    4    9 ar
    10    4    5 ar
    11    5    6 ar
    12    5   31 1
    13    6    7 ar
    14    6   32 1
    15    7   26 1
    16    7    8 ar
    17    8    9 ar
    18    8   24 1
    19    9   10 1
    20   10   11 1
    21   10   33 1
    22   10   34 1
    23   11   12 1
    24   11   16 1
    25   12   13 1
    26   12   35 1
    27   12   36 1
    28   13   14 1
    29   13   37 1
    30   13   38 1
    31   14   15 2
    32   16   17 1
    33   16   39 1
    34   16   40 1
    35   17   22 ar
    36   17   18 ar
    37   18   19 ar
    38   18   41 1
    39   19   20 ar
    40   19   42 1
    41   20   21 ar
    42   20   23 1
    43   21   22 ar
    44   21   43 1
    45   22   44 1
    46   24   25 2
    47   25   26 1
    48   26   27 1
@<TRIPOS>MOLECULE
CHEMBL214291__5
   44    48     0     0     0
SMALL
USER_CHARGES

@<TRIPOS>ATOM
      1 C1         -0.0184    1.5028    0.0103 C.3       1 <0>        -0.1135
      2 C2          0.0021   -0.0041    0.0020 C.2       1 <0>        -0.1697
      3 C3         -1.1502   -0.7069    0.0036 C.2       1 <0>         0.0031
      4 C4         -2.5311   -0.2288   -0.1159 C.ar      1 <0>        -0.0457
      5 C5         -3.1038    1.0253    0.1753 C.ar      1 <0>        -0.0852
      6 C6         -4.4177    1.2654   -0.0760 C.ar      1 <0>        -0.0513
      7 C7         -5.2221    0.2587   -0.6229 C.ar      1 <0>         0.0266
      8 C8         -4.6719   -1.0121   -0.8834 C.ar      1 <0>         0.0378
      9 C9         -3.3348   -1.2578   -0.6148 C.ar      1 <0>        -0.0583
     10 C10        -2.5163   -2.5294   -0.7115 C.3       1 <0>        -0.0799
     11 C11        -1.2249   -2.2242    0.0670 C.3       1 <0>        -0.0283
     12 C12        -0.0033   -2.7737   -0.6752 C.3       1 <0>        -0.1081
     13 C13         1.2592   -2.2105   -0.0142 C.3       1 <0>        -0.1701
     14 C14         1.2270   -0.7062   -0.0134 C.2       1 <0>         0.3909
     15 O1          2.2712   -0.0861   -0.0218 O.2       1 <0>        -0.4534
     16 C15        -1.3034   -2.7277    1.5097 C.3       1 <0>        -0.0608
     17 C16        -1.3752   -4.2330    1.5132 C.ar      1 <0>        -0.0900
     18 C17        -2.6032   -4.8660    1.4638 C.ar      1 <0>        -0.0889
     19 C18        -2.6703   -6.2464    1.4665 C.ar      1 <0>        -0.1500
     20 C19        -1.5069   -6.9954    1.5187 C.ar      1 <0>         0.0986
     21 C20        -0.2776   -6.3603    1.5680 C.ar      1 <0>        -0.1486
     22 C21        -0.2127   -4.9798    1.5599 C.ar      1 <0>        -0.0854
     23 F1         -1.5713   -8.3448    1.5218 F         1 <0>        -0.1382
     24 N1         -5.7090   -1.7565   -1.3922 N.pl3     1 <0>        -0.4147
     25 N2         -6.7548   -1.0059   -1.4391 N.2       1 <0>        -0.0067
     26 N3         -6.5127    0.1790   -1.0004 N.2       1 <0>        -0.2475
     27 H1         -5.6616   -2.6851   -1.6683 H         1 <0>         0.4534
     28 H2          1.0042    1.8801    0.0026 H         1 <0>         0.0788
     29 H3         -0.5455    1.8639   -0.8728 H         1 <0>         0.0735
     30 H4         -0.5286    1.8543    0.9071 H         1 <0>         0.0740
     31 H5         -2.4914    1.8050    0.6036 H         1 <0>         0.1431
     32 H6         -4.8416    2.2334    0.1467 H         1 <0>         0.1469
     33 H7         -3.0501   -3.3604   -0.2505 H         1 <0>         0.0928
     34 H8         -2.2873   -2.7552   -1.7530 H         1 <0>         0.0949
     35 H9          0.0046   -3.8618   -0.6126 H         1 <0>         0.0881
     36 H10        -0.0394   -2.4640   -1.7196 H         1 <0>         0.0783
     37 H11         1.3199   -2.5730    1.0119 H         1 <0>         0.1033
     38 H12         2.1357   -2.5490   -0.5668 H         1 <0>         0.1004
     39 H13        -0.4170   -2.4050    2.0559 H         1 <0>         0.0858
     40 H14        -2.1937   -2.3204    1.9887 H         1 <0>         0.0850
     41 H15        -3.5105   -4.2816    1.4235 H         1 <0>         0.1307
     42 H16        -3.6298   -6.7407    1.4283 H         1 <0>         0.1360
     43 H17         0.6305   -6.9435    1.6091 H         1 <0>         0.1376
     44 H18         0.7462   -4.4843    1.5939 H         1 <0>         0.1342
@<TRIPOS>BOND
     1    1    2 1
     2    1   28 1
     3    1   29 1
     4    1   30 1
     5    2   14 1
     6    2    3 2
     7    3   11 1
     8    3    4 1
     9    4    9 ar
    10    4    5 ar
    11    5    6 ar
    12    5   31 1
    13    6    7 ar
    14    6   32 1
    15    7    8 ar
    16    7   26 1
    17    8    9 ar
    18    8   24 1
    19    9   10 1
    20   10   11 1
    21   10   33 1
    22   10   34 1
    23   11   12 1
    24   11   16 1
    25   12   13 1
    26   12   35 1
    27   12   36 1
    28   13   14 1
    29   13   37 1
    30   13   38 1
    31   14   15 2
    32   16   17 1
    33   16   39 1
    34   16   40 1
    35   17   22 ar
    36   17   18 ar
    37   18   19 ar
    38   18   41 1
    39   19   20 ar
    40   19   42 1
    41   20   21 ar
    42   20   23 1
    43   21   22 ar
    44   21   43 1
    45   22   44 1
    46   24   27 1
    47   24   25 1
    48   25   26 2
@<TRIPOS>MOLECULE
CHEMBL214091
   43    46     0     0     0
SMALL
USER_CHARGES

@<TRIPOS>ATOM
      1 C1         -0.0184    1.5028    0.0103 C.3       1 <0>        -0.1094
      2 C2          0.0021   -0.0041    0.0020 C.2       1 <0>        -0.1878
      3 C3         -1.1531   -0.7062    0.0036 C.2       1 <0>         0.0116
      4 C4         -2.5240   -0.2452    0.1491 C.ar      1 <0>        -0.0978
      5 C5         -3.0745    1.0237   -0.0999 C.ar      1 <0>        -0.0588
      6 C6         -4.4203    1.1886    0.1669 C.ar      1 <0>        -0.1572
      7 C7         -5.1997    0.1519    0.6606 C.ar      1 <0>         0.1277
      8 C8         -4.6686   -1.1183    0.8978 C.ar      1 <0>        -0.1356
      9 C9         -3.3313   -1.3043    0.6201 C.ar      1 <0>        -0.0527
     10 C10        -2.5119   -2.5632    0.6838 C.3       1 <0>        -0.0843
     11 C11        -1.2188   -2.2261   -0.0837 C.3       1 <0>        -0.0316
     12 C12         0.0053   -2.7782    0.6510 C.3       1 <0>        -0.1072
     13 C13         1.2642   -2.2074   -0.0109 C.3       1 <0>        -0.1693
     14 C14         1.2263   -0.7034   -0.0134 C.2       1 <0>         0.3924
     15 O1          2.2691   -0.0804   -0.0245 O.2       1 <0>        -0.4605
     16 C15        -1.2861   -2.7050   -1.5352 C.3       1 <0>        -0.0605
     17 C16        -1.3493   -4.2104   -1.5651 C.ar      1 <0>        -0.0784
     18 C17        -0.1826   -4.9503   -1.6123 C.ar      1 <0>        -0.1161
     19 C18        -0.2406   -6.3312   -1.6398 C.ar      1 <0>        -0.1161
     20 C19        -1.4652   -6.9721   -1.6195 C.ar      1 <0>        -0.1213
     21 C20        -2.6318   -6.2322   -1.5714 C.ar      1 <0>        -0.1164
     22 C21        -2.5738   -4.8514   -1.5397 C.ar      1 <0>        -0.1170
     23 O2         -6.5123    0.3780    0.9203 O.3       1 <0>        -0.4992
     24 H1          1.0042    1.8801    0.0026 H         1 <0>         0.0772
     25 H2         -0.5455    1.8639   -0.8728 H         1 <0>         0.0696
     26 H3         -0.5286    1.8543    0.9071 H         1 <0>         0.0702
     27 H4         -2.4724    1.8342   -0.4833 H         1 <0>         0.1403
     28 H5         -4.8778    2.1502   -0.0133 H         1 <0>         0.1317
     29 H6         -5.2802   -1.9209    1.2826 H         1 <0>         0.1400
     30 H7         -2.2841   -2.8164    1.7192 H         1 <0>         0.0927
     31 H8         -3.0388   -3.3845    0.1980 H         1 <0>         0.0961
     32 H9         -0.0279   -2.4765    1.6979 H         1 <0>         0.0757
     33 H10         0.0152   -3.8659    0.5820 H         1 <0>         0.0874
     34 H11         2.1436   -2.5461    0.5369 H         1 <0>         0.0985
     35 H12         1.3227   -2.5637   -1.0394 H         1 <0>         0.1014
     36 H13        -2.1760   -2.2945   -2.0124 H         1 <0>         0.0806
     37 H14        -0.3985   -2.3679   -2.0706 H         1 <0>         0.0798
     38 H15         0.7742   -4.4496   -1.6281 H         1 <0>         0.1218
     39 H16         0.6709   -6.9093   -1.6773 H         1 <0>         0.1226
     40 H17        -1.5105   -8.0509   -1.6417 H         1 <0>         0.1215
     41 H18        -3.5886   -6.7329   -1.5560 H         1 <0>         0.1220
     42 H19        -3.4851   -4.2734   -1.4983 H         1 <0>         0.1216
     43 H20        -7.0973    0.2043    0.1701 H         1 <0>         0.3945
@<TRIPOS>BOND
     1    1    2 1
     2    1   24 1
     3    1   25 1
     4    1   26 1
     5    2   14 1
     6    2    3 2
     7    3   11 1
     8    3    4 1
     9    4    9 ar
    10    4    5 ar
    11    5    6 ar
    12    5   27 1
    13    6    7 ar
    14    6   28 1
    15    7    8 ar
    16    7   23 1
    17    8    9 ar
    18    8   29 1
    19    9   10 1
    20   10   11 1
    21   10   30 1
    22   10   31 1
    23   11   12 1
    24   11   16 1
    25   12   13 1
    26   12   32 1
    27   12   33 1
    28   13   14 1
    29   13   34 1
    30   13   35 1
    31   14   15 2
    32   16   17 1
    33   16   36 1
    34   16   37 1
    35   17   22 ar
    36   17   18 ar
    37   18   19 ar
    38   18   38 1
    39   19   20 ar
    40   19   39 1
    41   20   21 ar
    42   20   40 1
    43   21   22 ar
    44   21   41 1
    45   22   42 1
    46   23   43 1
@<TRIPOS>MOLECULE
CHEMBL214091__1
   43    46     0     0     0
SMALL
USER_CHARGES

@<TRIPOS>ATOM
      1 C1         -0.0184    1.5028    0.0103 C.3       1 <0>        -0.1092
      2 C2          0.0021   -0.0041    0.0020 C.2       1 <0>        -0.1883
      3 C3         -1.1531   -0.7062    0.0036 C.2       1 <0>         0.0119
      4 C4         -2.5253   -0.2437   -0.1232 C.ar      1 <0>        -0.0976
      5 C5         -3.0733    1.0223    0.1458 C.ar      1 <0>        -0.0588
      6 C6         -4.4216    1.1902   -0.1059 C.ar      1 <0>        -0.1570
      7 C7         -5.2059    0.1591   -0.6036 C.ar      1 <0>         0.1280
      8 C8         -4.6774   -1.1085   -0.8597 C.ar      1 <0>        -0.1361
      9 C9         -3.3373   -1.2972   -0.5985 C.ar      1 <0>        -0.0528
     10 C10        -2.5186   -2.5553   -0.6847 C.3       1 <0>        -0.0845
     11 C11        -1.2180   -2.2270    0.0740 C.3       1 <0>        -0.0314
     12 C12        -0.0012   -2.7705   -0.6790 C.3       1 <0>        -0.1071
     13 C13         1.2641   -2.2074   -0.0228 C.3       1 <0>        -0.1695
     14 C14         1.2263   -0.7034   -0.0134 C.2       1 <0>         0.3926
     15 O1          2.2691   -0.0805   -0.0147 O.2       1 <0>        -0.4606
     16 C15        -1.2712   -2.7227    1.5205 C.3       1 <0>        -0.0611
     17 C16        -1.3342   -4.2283    1.5336 C.ar      1 <0>        -0.0783
     18 C17        -2.5587   -4.8691    1.5070 C.ar      1 <0>        -0.1169
     19 C18        -2.6165   -6.2502    1.5190 C.ar      1 <0>        -0.1162
     20 C19        -1.4497   -6.9905    1.5572 C.ar      1 <0>        -0.1213
     21 C20        -0.2251   -6.3497    1.5829 C.ar      1 <0>        -0.1164
     22 C21        -0.1672   -4.9686    1.5665 C.ar      1 <0>        -0.1161
     23 O2         -6.5211    0.3880   -0.8474 O.3       1 <0>        -0.4998
     24 H1          1.0042    1.8801    0.0026 H         1 <0>         0.0771
     25 H2         -0.5455    1.8639   -0.8728 H         1 <0>         0.0698
     26 H3         -0.5286    1.8543    0.9071 H         1 <0>         0.0698
     27 H4         -2.4674    1.8283    0.5326 H         1 <0>         0.1403
     28 H5         -4.8774    2.1495    0.0901 H         1 <0>         0.1319
     29 H6         -5.2932   -1.9072   -1.2461 H         1 <0>         0.1400
     30 H7         -3.0408   -3.3822   -0.2034 H         1 <0>         0.0963
     31 H8         -2.3009   -2.7964   -1.7252 H         1 <0>         0.0925
     32 H9          0.0094   -3.8590   -0.6226 H         1 <0>         0.0873
     33 H10        -0.0446   -2.4568   -1.7220 H         1 <0>         0.0754
     34 H11         1.3326   -2.5755    1.0009 H         1 <0>         0.1021
     35 H12         2.1381   -2.5396   -0.5831 H         1 <0>         0.0980
     36 H13        -0.3784   -2.3917    2.0510 H         1 <0>         0.0799
     37 H14        -2.1564   -2.3177    2.0110 H         1 <0>         0.0810
     38 H15        -3.4703   -4.2907    1.4771 H         1 <0>         0.1220
     39 H16        -3.5732   -6.7508    1.4989 H         1 <0>         0.1221
     40 H17        -1.4949   -8.0695    1.5673 H         1 <0>         0.1214
     41 H18         0.6865   -6.9280    1.6131 H         1 <0>         0.1225
     42 H19         0.7896   -4.4680    1.5829 H         1 <0>         0.1217
     43 H20        -6.7061    0.7031   -1.7427 H         1 <0>         0.3949
@<TRIPOS>BOND
     1    1    2 1
     2    1   24 1
     3    1   25 1
     4    1   26 1
     5    2   14 1
     6    2    3 2
     7    3   11 1
     8    3    4 1
     9    4    9 ar
    10    4    5 ar
    11    5    6 ar
    12    5   27 1
    13    6    7 ar
    14    6   28 1
    15    7    8 ar
    16    7   23 1
    17    8    9 ar
    18    8   29 1
    19    9   10 1
    20   10   11 1
    21   10   30 1
    22   10   31 1
    23   11   12 1
    24   11   16 1
    25   12   13 1
    26   12   32 1
    27   12   33 1
    28   13   14 1
    29   13   34 1
    30   13   35 1
    31   14   15 2
    32   16   17 1
    33   16   36 1
    34   16   37 1
    35   17   22 ar
    36   17   18 ar
    37   18   19 ar
    38   18   38 1
    39   19   20 ar
    40   19   39 1
    41   20   21 ar
    42   20   40 1
    43   21   22 ar
    44   21   41 1
    45   22   42 1
    46   23   43 1
@<TRIPOS>MOLECULE
CHEMBL489
   59    61     0     0     0
SMALL
USER_CHARGES

@<TRIPOS>ATOM
      1 C1          0.8254   -1.1911    0.5458 C.3       1 <0>        -0.1467
      2 C2          0.0049   -0.0175    0.0070 C.3       1 <0>        -0.0930
      3 C3         -1.4365   -0.4345   -0.1329 C.2       1 <0>        -0.0412
      4 C4         -1.8945   -0.9031   -1.3201 C.2       1 <0>        -0.0542
      5 C5         -1.0207   -0.8745   -2.5135 C.ar      1 <0>        -0.0505
      6 C6         -0.5927    0.3462   -3.0382 C.ar      1 <0>        -0.0904
      7 C7          0.2219    0.3688   -4.1500 C.ar      1 <0>        -0.1432
      8 C8          0.6163   -0.8208   -4.7483 C.ar      1 <0>         0.1114
      9 C9          0.1922   -2.0372   -4.2295 C.ar      1 <0>        -0.1430
     10 C10        -0.6173   -2.0682   -3.1143 C.ar      1 <0>        -0.0865
     11 O1          1.4188   -0.7945   -5.8442 O.3       1 <0>        -0.4998
     12 C11        -3.2681   -1.4431   -1.4219 C.ar      1 <0>        -0.0476
     13 C12        -3.6201   -2.5973   -0.7200 C.ar      1 <0>        -0.0585
     14 C13        -4.9009   -3.0973   -0.8174 C.ar      1 <0>        -0.1372
     15 C14        -5.8406   -2.4544   -1.6126 C.ar      1 <0>         0.1115
     16 C15        -5.4943   -1.3060   -2.3124 C.ar      1 <0>        -0.1995
     17 C16        -4.2171   -0.7965   -2.2156 C.ar      1 <0>        -0.0636
     18 O2         -7.1019   -2.9506   -1.7064 O.3       1 <0>        -0.3290
     19 C17        -8.0181   -2.2400   -2.5417 C.3       1 <0>         0.0246
     20 C18        -9.3768   -2.9431   -2.5220 C.3       1 <0>        -0.0017
     21 N1         -9.9465   -2.8699   -1.1700 N.4       1 <0>        -0.3886
     22 C19       -10.2293   -1.4683   -0.8330 C.3       1 <0>        -0.0545
     23 C20       -11.1926   -3.6463   -1.1210 C.3       1 <0>        -0.0476
     24 C21        -2.3462   -0.3332    1.0179 C.ar      1 <0>        -0.0458
     25 C22        -3.4325    0.5475    0.9802 C.ar      1 <0>        -0.1002
     26 C23        -4.2808    0.6367    2.0634 C.ar      1 <0>        -0.1203
     27 C24        -4.0597   -0.1419    3.1862 C.ar      1 <0>        -0.1181
     28 C25        -2.9870   -1.0154    3.2316 C.ar      1 <0>        -0.1170
     29 C26        -2.1333   -1.1212    2.1541 C.ar      1 <0>        -0.1062
     30 H1          1.8836   -0.9299    0.5351 H         1 <0>         0.0624
     31 H2          0.5160   -1.4121    1.5673 H         1 <0>         0.0568
     32 H3          0.6611   -2.0675   -0.0812 H         1 <0>         0.0566
     33 H4          0.0747    0.8224    0.6983 H         1 <0>         0.0736
     34 H5          0.3931    0.2804   -0.9670 H         1 <0>         0.0821
     35 H6         -0.8996    1.2717   -2.5739 H         1 <0>         0.1277
     36 H7          0.5534    1.3128   -4.5565 H         1 <0>         0.1319
     37 H8          0.5005   -2.9602   -4.6979 H         1 <0>         0.1307
     38 H9         -0.9431   -3.0147   -2.7087 H         1 <0>         0.1250
     39 H10         2.3639   -0.8127   -5.6402 H         1 <0>         0.3948
     40 H11        -2.8897   -3.0979   -0.1017 H         1 <0>         0.1325
     41 H12        -5.1738   -3.9904   -0.2749 H         1 <0>         0.1321
     42 H13        -6.2278   -0.8088   -2.9298 H         1 <0>         0.1265
     43 H14        -3.9499    0.0993   -2.7563 H         1 <0>         0.1290
     44 H15        -8.1310   -1.2207   -2.1723 H         1 <0>         0.0864
     45 H16        -7.6360   -2.2163   -3.5623 H         1 <0>         0.1085
     46 H17       -10.0493   -2.4539   -3.2267 H         1 <0>         0.1492
     47 H18        -9.2496   -3.9876   -2.8066 H         1 <0>         0.1425
     48 H19       -10.9410   -1.0587   -1.5499 H         1 <0>         0.1246
     49 H20       -10.6520   -1.4139    0.1702 H         1 <0>         0.1273
     50 H21        -9.3047   -0.8922   -0.8694 H         1 <0>         0.1214
     51 H22       -10.9828   -4.6863   -1.3710 H         1 <0>         0.1248
     52 H23       -11.6153   -3.5919   -0.1177 H         1 <0>         0.1258
     53 H24       -11.9043   -3.2367   -1.8378 H         1 <0>         0.1231
     54 H25        -3.6059    1.1562    0.1051 H         1 <0>         0.1183
     55 H26        -5.1199    1.3161    2.0359 H         1 <0>         0.1196
     56 H27        -4.7277   -0.0673    4.0316 H         1 <0>         0.1206
     57 H28        -2.8211   -1.6193    4.1115 H         1 <0>         0.1239
     58 H29        -1.2997   -1.8070    2.1889 H         1 <0>         0.1249
     59 H30        -9.2877   -3.2489   -0.5064 H         1 <0>         0.4339
@<TRIPOS>BOND
     1    1    2 1
     2    1   30 1
     3    1   31 1
     4    1   32 1
     5    2    3 1
     6    2   33 1
     7    2   34 1
     8    3    4 2
     9    3   24 1
    10    4    5 1
    11    4   12 1
    12    5   10 ar
    13    5    6 ar
    14    6    7 ar
    15    6   35 1
    16    7    8 ar
    17    7   36 1
    18    8    9 ar
    19    8   11 1
    20    9   10 ar
    21    9   37 1
    22   10   38 1
    23   11   39 1
    24   12   17 ar
    25   12   13 ar
    26   13   14 ar
    27   13   40 1
    28   14   15 ar
    29   14   41 1
    30   15   16 ar
    31   15   18 1
    32   16   17 ar
    33   16   42 1
    34   17   43 1
    35   18   19 1
    36   19   20 1
    37   19   44 1
    38   19   45 1
    39   20   21 1
    40   20   46 1
    41   20   47 1
    42   21   22 1
    43   21   23 1
    44   21   59 1
    45   22   48 1
    46   22   49 1
    47   22   50 1
    48   23   51 1
    49   23   52 1
    50   23   53 1
    51   24   29 ar
    52   24   25 ar
    53   25   26 ar
    54   25   54 1
    55   26   27 ar
    56   26   55 1
    57   27   28 ar
    58   27   56 1
    59   28   29 ar
    60   28   57 1
    61   29   58 1
@<TRIPOS>MOLECULE
CHEMBL1098710
   71    76     0     0     0
SMALL
USER_CHARGES

@<TRIPOS>ATOM
      1 C1         -1.3847    1.4309   -0.3577 C.3       1 <0>        -0.1542
      2 C2         -1.7276   -0.0305   -0.6535 C.3       1 <0>         0.0583
      3 O1         -0.6422   -0.6422   -1.3534 O.3       1 <0>        -0.3429
      4 C3         -0.7848   -1.9337   -1.6901 C.2       1 <0>         0.4849
      5 O2         -1.7976   -2.5253   -1.4001 O.2       1 <0>        -0.4775
      6 C4          0.3183   -2.6459   -2.4297 C.3       1 <0>         0.0496
      7 C5          0.4844   -2.0717   -3.8527 C.3       1 <0>        -0.0600
      8 C6          0.8504   -3.2582   -4.7184 C.ar      1 <0>        -0.1013
      9 C7          1.4158   -3.3069   -5.9818 C.ar      1 <0>        -0.0950
     10 C8          1.6639   -4.5239   -6.5857 C.ar      1 <0>        -0.1074
     11 C9          1.3472   -5.6979   -5.9277 C.ar      1 <0>        -0.0941
     12 C10         0.7833   -5.6513   -4.6679 C.ar      1 <0>        -0.0881
     13 C11         0.5337   -4.4319   -4.0606 C.ar      1 <0>        -0.0926
     14 C12        -0.0668   -4.1144   -2.7079 C.3       1 <0>        -0.0613
     15 C13         1.6166   -7.0270   -6.5848 C.3       1 <0>         0.1841
     16 C14         2.9993   -7.0103   -7.2833 C.3       1 <0>        -0.1494
     17 C15         2.7239   -7.1692   -8.8036 C.3       1 <0>        -0.1146
     18 C16         1.2870   -6.6556   -8.9481 C.3       1 <0>        -0.0850
     19 H1          1.2633   -5.5671   -8.8946 H         1 <0>         0.0801
     20 C17         0.6067   -7.2803   -7.6981 C.3       1 <0>        -0.0402
     21 C18        -0.7589   -6.6450   -7.5408 C.3       1 <0>        -0.1000
     22 C19        -1.5961   -7.0265   -8.7766 C.3       1 <0>        -0.1136
     23 C20        -0.8993   -6.5841  -10.0551 C.3       1 <0>        -0.0414
     24 H2         -0.8186   -5.4972  -10.0352 H         1 <0>         0.0754
     25 C21         0.5268   -7.1429  -10.1643 C.3       1 <0>        -0.0738
     26 H3          0.4852   -8.2321  -10.1606 H         1 <0>         0.0843
     27 C22         1.1485   -6.6340  -11.4650 C.3       1 <0>        -0.1117
     28 C23         0.4439   -7.3235  -12.6327 C.3       1 <0>        -0.0815
     29 C24        -1.0534   -7.2577  -12.4843 C.ar      1 <0>        -0.0583
     30 C25        -1.6798   -6.9676  -11.2788 C.ar      1 <0>        -0.0766
     31 C26        -3.0658   -6.9510  -11.2060 C.ar      1 <0>        -0.1030
     32 C27        -3.8311   -7.2863  -12.3029 C.ar      1 <0>        -0.1462
     33 C28        -3.2092   -7.6430  -13.4905 C.ar      1 <0>         0.1030
     34 C29        -1.8242   -7.5589  -13.5989 C.ar      1 <0>        -0.1503
     35 O3         -3.9537   -7.9712  -14.5790 O.3       1 <0>        -0.5013
     36 C30         0.4382   -8.7868   -7.9053 C.3       1 <0>        -0.1388
     37 O4          1.5610   -8.0773   -5.6174 O.3       1 <0>        -0.5450
     38 C31         1.5824   -2.5695   -1.6794 C.1       1 <0>         0.2134
     39 N1          2.5580   -2.5106   -1.1003 N.1       1 <0>        -0.3852
     40 H4         -0.4851    1.4760    0.2561 H         1 <0>         0.0677
     41 H5         -1.2121    1.9605   -1.2947 H         1 <0>         0.0692
     42 H6         -2.2126    1.8975    0.1762 H         1 <0>         0.0837
     43 H7         -1.9001   -0.5600    0.2835 H         1 <0>         0.0722
     44 H8         -2.6272   -0.0756   -1.2673 H         1 <0>         0.0745
     45 H9         -0.4516   -1.6291   -4.1936 H         1 <0>         0.1071
     46 H10         1.2829   -1.3299   -3.8704 H         1 <0>         0.0996
     47 H11         1.6631   -2.3903   -6.4965 H         1 <0>         0.1254
     48 H12         2.1046   -4.5585   -7.5711 H         1 <0>         0.1301
     49 H13         0.5362   -6.5688   -4.1546 H         1 <0>         0.1310
     50 H14         0.3554   -4.7673   -1.9440 H         1 <0>         0.0948
     51 H15        -1.1510   -4.2213   -2.7409 H         1 <0>         0.1211
     52 H16         3.5039   -6.0634   -7.0915 H         1 <0>         0.0736
     53 H17         3.6096   -7.8393   -6.9250 H         1 <0>         0.0762
     54 H18         3.4125   -6.5573   -9.3863 H         1 <0>         0.0688
     55 H19         2.7909   -8.2159   -9.1003 H         1 <0>         0.0734
     56 H20        -1.2399   -7.0211   -6.6379 H         1 <0>         0.0675
     57 H21        -0.6580   -5.5612   -7.4828 H         1 <0>         0.0660
     58 H22        -1.7330   -8.1077   -8.7978 H         1 <0>         0.0710
     59 H23        -2.5710   -6.5430   -8.7131 H         1 <0>         0.0658
     60 H24         1.0136   -5.5549  -11.5395 H         1 <0>         0.0657
     61 H25         2.2115   -6.8744  -11.4832 H         1 <0>         0.0723
     62 H26         0.7322   -6.8338  -13.5628 H         1 <0>         0.0753
     63 H27         0.7533   -8.3680  -12.6697 H         1 <0>         0.0777
     64 H28        -3.5494   -6.6730  -10.2812 H         1 <0>         0.1276
     65 H29        -4.9090   -7.2718  -12.2377 H         1 <0>         0.1274
     66 H30        -1.3411   -7.8203  -14.5288 H         1 <0>         0.1266
     67 H31        -4.1700   -7.2202  -15.1485 H         1 <0>         0.3894
     68 H32         0.0567   -9.2390   -6.9898 H         1 <0>         0.0637
     69 H33        -0.2648   -8.9653   -8.7189 H         1 <0>         0.0620
     70 H34         1.4026   -9.2294   -8.1546 H         1 <0>         0.0551
     71 H35         2.1962   -7.9804   -4.8948 H         1 <0>         0.3753
@<TRIPOS>BOND
     1    1    2 1
     2    1   40 1
     3    1   41 1
     4    1   42 1
     5    2    3 1
     6    2   43 1
     7    2   44 1
     8    3    4 1
     9    4    5 2
    10    4    6 1
    11    6   14 1
    12    6    7 1
    13    6   38 1
    14    7    8 1
    15    7   45 1
    16    7   46 1
    17    8   13 ar
    18    8    9 ar
    19    9   10 ar
    20    9   47 1
    21   10   11 ar
    22   10   48 1
    23   11   12 ar
    24   11   15 1
    25   12   13 ar
    26   12   49 1
    27   13   14 1
    28   14   50 1
    29   14   51 1
    30   15   20 1
    31   15   16 1
    32   15   37 1
    33   16   17 1
    34   16   52 1
    35   16   53 1
    36   17   18 1
    37   17   54 1
    38   17   55 1
    39   18   19 1
    40   18   25 1
    41   18   20 1
    42   20   21 1
    43   20   36 1
    44   21   22 1
    45   21   56 1
    46   21   57 1
    47   22   23 1
    48   22   58 1
    49   22   59 1
    50   23   24 1
    51   23   30 1
    52   23   25 1
    53   25   26 1
    54   25   27 1
    55   27   28 1
    56   27   60 1
    57   27   61 1
    58   28   29 1
    59   28   62 1
    60   28   63 1
    61   29   34 ar
    62   29   30 ar
    63   30   31 ar
    64   31   32 ar
    65   31   64 1
    66   32   33 ar
    67   32   65 1
    68   33   34 ar
    69   33   35 1
    70   34   66 1
    71   35   67 1
    72   36   68 1
    73   36   69 1
    74   36   70 1
    75   37   71 1
    76   38   39 3
@<TRIPOS>MOLECULE
CHEMBL1098710__1
   71    76     0     0     0
SMALL
USER_CHARGES

@<TRIPOS>ATOM
      1 C1         -1.7132    0.0400   -1.9434 C.3       1 <0>        -0.1539
      2 C2         -1.2129   -1.3992   -2.0834 C.3       1 <0>         0.0592
      3 O1          0.0709   -1.3983   -2.7109 O.3       1 <0>        -0.3446
      4 C3          0.6533   -2.5913   -2.9088 C.2       1 <0>         0.4829
      5 O2          0.0916   -3.6029   -2.5609 O.2       1 <0>        -0.4750
      6 C4          2.0077   -2.6691   -3.5651 C.3       1 <0>         0.0502
      7 C5          3.0928   -2.0499   -2.6588 C.3       1 <0>        -0.0622
      8 C6          3.6301   -3.2035   -1.8393 C.ar      1 <0>        -0.1044
      9 C7          4.3711   -3.2048   -0.6692 C.ar      1 <0>        -0.0950
     10 C8          4.7559   -4.3987   -0.0915 C.ar      1 <0>        -0.1082
     11 C9          4.4008   -5.5971   -0.6824 C.ar      1 <0>        -0.0937
     12 C10         3.6619   -5.5979   -1.8492 C.ar      1 <0>        -0.0861
     13 C11         3.2751   -4.4016   -2.4301 C.ar      1 <0>        -0.0853
     14 C12         2.4749   -4.1350   -3.6870 C.3       1 <0>        -0.0628
     15 C13         4.8199   -6.9012   -0.0542 C.3       1 <0>         0.1843
     16 C14         4.6375   -6.8398    1.4831 C.3       1 <0>        -0.1491
     17 C15         6.0590   -6.9579    2.0977 C.3       1 <0>        -0.1146
     18 C16         6.9656   -6.4650    0.9644 C.3       1 <0>        -0.0849
     19 H1          6.9173   -5.3792    0.8815 H         1 <0>         0.0801
     20 C17         6.3096   -7.1384   -0.2733 C.3       1 <0>        -0.0402
     21 C18         6.9234   -6.5317   -1.5175 C.3       1 <0>        -0.1000
     22 C19         8.4217   -6.8905   -1.5211 C.3       1 <0>        -0.1136
     23 C20         9.0951   -6.3981   -0.2484 C.3       1 <0>        -0.0414
     24 H2          9.0173   -5.3112   -0.2256 H         1 <0>         0.0754
     25 C21         8.4066   -6.9288    1.0175 C.3       1 <0>        -0.0738
     26 H3          8.4432   -8.0182    1.0143 H         1 <0>         0.0843
     27 C22         9.1390   -6.3706    2.2378 C.3       1 <0>        -0.1116
     28 C23        10.5120   -7.0370    2.3167 C.3       1 <0>        -0.0815
     29 C24        11.2148   -7.0015    0.9851 C.ar      1 <0>        -0.0582
     30 C25        10.5521   -6.7584   -0.2112 C.ar      1 <0>        -0.0766
     31 C26        11.2571   -6.7678   -1.4068 C.ar      1 <0>        -0.1031
     32 C27        12.5993   -7.0834   -1.4286 C.ar      1 <0>        -0.1463
     33 C28        13.2506   -7.3936   -0.2438 C.ar      1 <0>         0.1031
     34 C29        12.5742   -7.2825    0.9675 C.ar      1 <0>        -0.1503
     35 O3         14.5741   -7.7019   -0.2531 O.3       1 <0>        -0.5013
     36 C30         6.5985   -8.6408   -0.2528 C.3       1 <0>        -0.1387
     37 O4          4.0606   -7.9807   -0.6022 O.3       1 <0>        -0.5453
     38 C31         1.9860   -2.0154   -4.8838 C.1       1 <0>         0.2127
     39 N1          1.9692   -1.5109   -5.9015 N.1       1 <0>        -0.3835
     40 H4         -1.0118    0.6109   -1.3349 H         1 <0>         0.0688
     41 H5         -1.7917    0.4950   -2.9307 H         1 <0>         0.0678
     42 H6         -2.6925    0.0393   -1.4648 H         1 <0>         0.0834
     43 H7         -1.1344   -1.8542   -1.0960 H         1 <0>         0.0733
     44 H8         -1.9143   -1.9701   -2.6919 H         1 <0>         0.0716
     45 H9          3.8874   -1.6135   -3.2641 H         1 <0>         0.1077
     46 H10         2.6549   -1.2943   -2.0066 H         1 <0>         0.1007
     47 H11         4.6492   -2.2690   -0.2073 H         1 <0>         0.1249
     48 H12         5.3340   -4.3962    0.8207 H         1 <0>         0.1297
     49 H13         3.3849   -6.5344   -2.3102 H         1 <0>         0.1308
     50 H14         1.6151   -4.8032   -3.7368 H         1 <0>         0.1090
     51 H15         3.1033   -4.2596   -4.5689 H         1 <0>         0.1053
     52 H16         4.1842   -5.8905    1.7684 H         1 <0>         0.0737
     53 H17         4.0144   -7.6685    1.8193 H         1 <0>         0.0762
     54 H18         6.1545   -6.3171    2.9743 H         1 <0>         0.0687
     55 H19         6.2852   -7.9940    2.3496 H         1 <0>         0.0733
     56 H20         6.4426   -6.9429   -2.4051 H         1 <0>         0.0672
     57 H21         6.8027   -5.4486   -1.4989 H         1 <0>         0.0660
     58 H22         8.5317   -7.9728   -1.5900 H         1 <0>         0.0710
     59 H23         8.9002   -6.4260   -2.3834 H         1 <0>         0.0655
     60 H24         9.2591   -5.2923    2.1332 H         1 <0>         0.0657
     61 H25         8.5704   -6.5920    3.1410 H         1 <0>         0.0723
     62 H26        11.1202   -6.5149    3.0553 H         1 <0>         0.0753
     63 H27        10.3879   -8.0745    2.6271 H         1 <0>         0.0778
     64 H28        10.7495   -6.5259   -2.3290 H         1 <0>         0.1274
     65 H29        13.1404   -7.0893   -2.3632 H         1 <0>         0.1273
     66 H30        13.0861   -7.5076    1.8914 H         1 <0>         0.1267
     67 H31        15.1567   -6.9381   -0.1421 H         1 <0>         0.3894
     68 H32         6.0534   -9.1266   -1.0621 H         1 <0>         0.0637
     69 H33         7.6677   -8.8070   -0.3838 H         1 <0>         0.0617
     70 H34         6.2801   -9.0590    0.7021 H         1 <0>         0.0552
     71 H35         3.1059   -7.8944   -0.4749 H         1 <0>         0.3760
@<TRIPOS>BOND
     1    1    2 1
     2    1   40 1
     3    1   41 1
     4    1   42 1
     5    2    3 1
     6    2   43 1
     7    2   44 1
     8    3    4 1
     9    4    5 2
    10    4    6 1
    11    6   14 1
    12    6    7 1
    13    6   38 1
    14    7    8 1
    15    7   45 1
    16    7   46 1
    17    8   13 ar
    18    8    9 ar
    19    9   10 ar
    20    9   47 1
    21   10   11 ar
    22   10   48 1
    23   11   12 ar
    24   11   15 1
    25   12   13 ar
    26   12   49 1
    27   13   14 1
    28   14   50 1
    29   14   51 1
    30   15   20 1
    31   15   16 1
    32   15   37 1
    33   16   17 1
    34   16   52 1
    35   16   53 1
    36   17   18 1
    37   17   54 1
    38   17   55 1
    39   18   19 1
    40   18   25 1
    41   18   20 1
    42   20   21 1
    43   20   36 1
    44   21   22 1
    45   21   56 1
    46   21   57 1
    47   22   23 1
    48   22   58 1
    49   22   59 1
    50   23   24 1
    51   23   30 1
    52   23   25 1
    53   25   26 1
    54   25   27 1
    55   27   28 1
    56   27   60 1
    57   27   61 1
    58   28   29 1
    59   28   62 1
    60   28   63 1
    61   29   34 ar
    62   29   30 ar
    63   30   31 ar
    64   31   32 ar
    65   31   64 1
    66   32   33 ar
    67   32   65 1
    68   33   34 ar
    69   33   35 1
    70   34   66 1
    71   35   67 1
    72   36   68 1
    73   36   69 1
    74   36   70 1
    75   37   71 1
    76   38   39 3
@<TRIPOS>MOLECULE
CHEMBL411
   40    41     0     0     0
SMALL
USER_CHARGES

@<TRIPOS>ATOM
      1 C1         -0.9774   -1.9680   -0.2509 C.3       1 <0>        -0.1458
      2 C2         -0.3264   -0.5851   -0.3194 C.3       1 <0>        -0.0870
      3 C3          0.7431   -0.5855   -1.3812 C.2       1 <0>        -0.0731
      4 C4          2.0213   -0.8257   -1.0467 C.2       1 <0>        -0.0734
      5 C5          3.0672   -0.9702   -2.1220 C.3       1 <0>        -0.0872
      6 C6          3.2323   -2.4492   -2.4774 C.3       1 <0>        -0.1458
      7 C7          2.4012   -0.9479    0.3717 C.ar      1 <0>        -0.0475
      8 C8          2.3805    0.1760    1.2024 C.ar      1 <0>        -0.0918
      9 C9          2.7367    0.0567    2.5283 C.ar      1 <0>        -0.1429
     10 C10         3.1158   -1.1779    3.0394 C.ar      1 <0>         0.1037
     11 C11         3.1380   -2.2975    2.2179 C.ar      1 <0>        -0.1428
     12 C12         2.7780   -2.1893    0.8921 C.ar      1 <0>        -0.0920
     13 O1          3.4666   -1.2905    4.3472 O.3       1 <0>        -0.5003
     14 C13         0.3862   -0.3222   -2.7864 C.ar      1 <0>        -0.0476
     15 C14         0.8071    0.8571   -3.4075 C.ar      1 <0>        -0.0918
     16 C15         0.4709    1.0988   -4.7219 C.ar      1 <0>        -0.1431
     17 C16        -0.2851    0.1729   -5.4292 C.ar      1 <0>         0.1038
     18 C17        -0.7057   -1.0004   -4.8163 C.ar      1 <0>        -0.1429
     19 C18        -0.3695   -1.2537   -3.5041 C.ar      1 <0>        -0.0920
     20 O2         -0.6145    0.4158   -6.7247 O.3       1 <0>        -0.5003
     21 H1         -1.5127   -2.1640   -1.1799 H         1 <0>         0.0555
     22 H2         -0.2069   -2.7257   -0.1087 H         1 <0>         0.0556
     23 H3         -1.6765   -1.9994    0.5848 H         1 <0>         0.0577
     24 H4         -1.0823    0.1606   -0.5654 H         1 <0>         0.0688
     25 H5          0.1199   -0.3454    0.6457 H         1 <0>         0.0770
     26 H6          2.7565   -0.4162   -3.0078 H         1 <0>         0.0773
     27 H7          4.0167   -0.5751   -1.7609 H         1 <0>         0.0687
     28 H8          3.9859   -2.5533   -3.2580 H         1 <0>         0.0577
     29 H9          3.5469   -3.0025   -1.5926 H         1 <0>         0.0555
     30 H10         2.2818   -2.8453   -2.8348 H         1 <0>         0.0554
     31 H11         2.0861    1.1364    0.8058 H         1 <0>         0.1274
     32 H12         2.7213    0.9246    3.1708 H         1 <0>         0.1297
     33 H13         3.4339   -3.2553    2.6197 H         1 <0>         0.1291
     34 H14         2.7912   -3.0614    0.2551 H         1 <0>         0.1276
     35 H15         2.7274   -1.4940    4.9365 H         1 <0>         0.3912
     36 H16         1.3947    1.5778   -2.8582 H         1 <0>         0.1275
     37 H17         0.7953    2.0099   -5.2026 H         1 <0>         0.1297
     38 H18        -1.2936   -1.7172   -5.3703 H         1 <0>         0.1291
     39 H19        -0.6932   -2.1683   -3.0297 H         1 <0>         0.1277
     40 H20         0.0306    0.0832   -7.3637 H         1 <0>         0.3912
@<TRIPOS>BOND
     1    1    2 1
     2    1   21 1
     3    1   22 1
     4    1   23 1
     5    2    3 1
     6    2   24 1
     7    2   25 1
     8    3    4 2
     9    3   14 1
    10    4    5 1
    11    4    7 1
    12    5    6 1
    13    5   26 1
    14    5   27 1
    15    6   28 1
    16    6   29 1
    17    6   30 1
    18    7   12 ar
    19    7    8 ar
    20    8    9 ar
    21    8   31 1
    22    9   10 ar
    23    9   32 1
    24   10   11 ar
    25   10   13 1
    26   11   12 ar
    27   11   33 1
    28   12   34 1
    29   13   35 1
    30   14   19 ar
    31   14   15 ar
    32   15   16 ar
    33   15   36 1
    34   16   17 ar
    35   16   37 1
    36   17   18 ar
    37   17   20 1
    38   18   19 ar
    39   18   38 1
    40   19   39 1
    41   20   40 1
@<TRIPOS>MOLECULE
CHEMBL238959
   82    86     0     0     0
SMALL
USER_CHARGES

@<TRIPOS>ATOM
      1 C1         -0.0187    1.5258    0.0104 C.3       1 <0>        -0.1650
      2 C2          0.0021   -0.0041    0.0020 C.3       1 <0>         0.1421
      3 H1          0.5123   -0.3556   -0.8948 H         1 <0>         0.0895
      4 C3         -1.4333   -0.5336    0.0129 C.3       1 <0>        -0.1223
      5 C4         -1.4157   -2.0577   -0.1212 C.3       1 <0>        -0.0782
      6 C5         -2.8295   -2.5793   -0.1105 C.ar      1 <0>        -0.0933
      7 C6         -3.4314   -2.9172    1.0875 C.ar      1 <0>        -0.1008
      8 C7         -4.7271   -3.3960    1.1000 C.ar      1 <0>        -0.1428
      9 C8         -5.4247   -3.5373   -0.0909 C.ar      1 <0>         0.1018
     10 C9         -4.8186   -3.1971   -1.2916 C.ar      1 <0>        -0.1422
     11 C10        -3.5245   -2.7138   -1.2982 C.ar      1 <0>        -0.1004
     12 O1         -6.6993   -4.0085   -0.0813 O.3       1 <0>        -0.5002
     13 N1          0.7106   -0.4894    1.1889 N.am      1 <0>        -0.7280
     14 C11         2.0538   -0.5998    1.1737 C.2       1 <0>         0.5135
     15 O2          2.6758   -0.2974    0.1774 O.2       1 <0>        -0.5260
     16 C12         2.7826   -1.0990    2.3946 C.3       1 <0>        -0.0710
     17 C13         4.2638   -1.1281    2.1185 C.2       1 <0>        -0.1346
     18 C14         5.0227   -2.2454    1.5591 C.ar      1 <0>        -0.0521
     19 C15         4.6782   -3.5332    1.1335 C.ar      1 <0>        -0.0934
     20 C16         5.6417   -4.3684    0.6447 C.ar      1 <0>        -0.1085
     21 C17         6.9637   -3.9518    0.5657 C.ar      1 <0>        -0.1918
     22 C18         7.3285   -2.6847    0.9801 C.ar      1 <0>         0.1142
     23 C19         6.3592   -1.8152    1.4820 C.ar      1 <0>         0.0862
     24 N2          6.4060   -0.5237    1.9628 N.pl3     1 <0>        -0.5778
     25 H2          7.2068    0.0202    2.0244 H         1 <0>         0.4174
     26 C20         5.1453   -0.1207    2.3362 C.2       1 <0>         0.1486
     27 C21         4.8037    1.2066    2.8922 C.ar      1 <0>        -0.0443
     28 C22         3.6792    1.8916    2.4300 C.ar      1 <0>        -0.0921
     29 C23         3.3657    3.1291    2.9532 C.ar      1 <0>        -0.1159
     30 C24         4.1637    3.6913    3.9336 C.ar      1 <0>        -0.1058
     31 C25         5.2802    3.0176    4.3958 C.ar      1 <0>        -0.1179
     32 C26         5.6012    1.7766    3.8854 C.ar      1 <0>        -0.1054
     33 O3          8.6262   -2.2872    0.8992 O.3       1 <0>        -0.3211
     34 C27         9.5624   -3.2310    0.3751 C.3       1 <0>         0.0660
     35 C28        10.9602   -2.6091    0.3613 C.3       1 <0>        -0.1507
     36 C29        11.9625   -3.6196   -0.1999 C.3       1 <0>        -0.0059
     37 N3         13.3046   -3.0224   -0.2132 N.4       1 <0>        -0.3814
     38 C30        13.3239   -1.8866   -1.1426 C.3       1 <0>        -0.0139
     39 C31        14.6962   -1.2109   -1.0999 C.3       1 <0>        -0.1458
     40 C32        15.7706   -2.2236   -1.5065 C.3       1 <0>        -0.1399
     41 C33        15.6922   -3.4375   -0.5762 C.3       1 <0>        -0.1463
     42 C34        14.2830   -4.0307   -0.6384 C.3       1 <0>        -0.0067
     43 H3          1.0039    1.9031    0.0027 H         1 <0>         0.0599
     44 H4         -0.5459    1.8868   -0.8726 H         1 <0>         0.0668
     45 H5         -0.5289    1.8773    0.9072 H         1 <0>         0.0582
     46 H6         -1.9156   -0.2570    0.9504 H         1 <0>         0.0719
     47 H7         -1.9862   -0.1019   -0.8214 H         1 <0>         0.0819
     48 H8         -0.9334   -2.3344   -1.0587 H         1 <0>         0.0738
     49 H9         -0.8628   -2.4894    0.7131 H         1 <0>         0.0733
     50 H10        -2.8879   -2.8071    2.0143 H         1 <0>         0.1253
     51 H11        -5.1966   -3.6605    2.0359 H         1 <0>         0.1287
     52 H12        -5.3596   -3.3061   -2.2200 H         1 <0>         0.1289
     53 H13        -3.0538   -2.4447   -2.2322 H         1 <0>         0.1261
     54 H14        -7.3727   -3.3195    0.0019 H         1 <0>         0.3921
     55 H15         0.2131   -0.7312    1.9857 H         1 <0>         0.4001
     56 H16         2.5826   -0.4337    3.2345 H         1 <0>         0.1025
     57 H17         2.4385   -2.1044    2.6374 H         1 <0>         0.1038
     58 H18         3.6525   -3.8661    1.1920 H         1 <0>         0.1251
     59 H19         5.3731   -5.3618    0.3170 H         1 <0>         0.1279
     60 H20         7.7142   -4.6242    0.1770 H         1 <0>         0.1270
     61 H21         3.0559    1.4540    1.6642 H         1 <0>         0.1319
     62 H22         2.4957    3.6603    2.5963 H         1 <0>         0.1284
     63 H23         3.9142    4.6605    4.3396 H         1 <0>         0.1276
     64 H24         5.8995    3.4621    5.1608 H         1 <0>         0.1276
     65 H25         6.4702    1.2495    4.2504 H         1 <0>         0.1206
     66 H26         9.5679   -4.1233    1.0012 H         1 <0>         0.0731
     67 H27         9.2751   -3.5019   -0.6409 H         1 <0>         0.0728
     68 H28        10.9547   -1.7168   -0.2648 H         1 <0>         0.0978
     69 H29        11.2474   -2.3382    1.3773 H         1 <0>         0.0977
     70 H30        11.9681   -4.5119    0.4262 H         1 <0>         0.1356
     71 H31        11.6753   -3.8904   -1.2159 H         1 <0>         0.1338
     72 H32        13.1257   -2.2418   -2.1539 H         1 <0>         0.1297
     73 H33        12.5566   -1.1683   -0.8539 H         1 <0>         0.1315
     74 H34        14.7091   -0.3689   -1.7920 H         1 <0>         0.1124
     75 H35        14.8954   -0.8551   -0.0890 H         1 <0>         0.0876
     76 H36        15.6013   -2.5413   -2.5353 H         1 <0>         0.0821
     77 H37        16.7553   -1.7636   -1.4232 H         1 <0>         0.0946
     78 H38        16.4169   -4.1871   -0.8940 H         1 <0>         0.1130
     79 H39        15.9120   -3.1279    0.4455 H         1 <0>         0.0878
     80 H40        14.2237   -4.8953    0.0227 H         1 <0>         0.1310
     81 H41        14.0643   -4.3402   -1.6604 H         1 <0>         0.1292
     82 H42        13.5372   -2.6996    0.7141 H         1 <0>         0.4233
@<TRIPOS>BOND
     1    1    2 1
     2    1   43 1
     3    1   44 1
     4    1   45 1
     5    2    3 1
     6    2    4 1
     7    2   13 1
     8    4    5 1
     9    4   46 1
    10    4   47 1
    11    5    6 1
    12    5   48 1
    13    5   49 1
    14    6   11 ar
    15    6    7 ar
    16    7    8 ar
    17    7   50 1
    18    8    9 ar
    19    8   51 1
    20    9   10 ar
    21    9   12 1
    22   10   11 ar
    23   10   52 1
    24   11   53 1
    25   12   54 1
    26   13   14 am
    27   13   55 1
    28   14   15 2
    29   14   16 1
    30   16   17 1
    31   16   56 1
    32   16   57 1
    33   17   26 2
    34   17   18 1
    35   18   23 ar
    36   18   19 ar
    37   19   20 ar
    38   19   58 1
    39   20   21 ar
    40   20   59 1
    41   21   22 ar
    42   21   60 1
    43   22   23 ar
    44   22   33 1
    45   23   24 1
    46   24   25 1
    47   24   26 1
    48   26   27 1
    49   27   32 ar
    50   27   28 ar
    51   28   29 ar
    52   28   61 1
    53   29   30 ar
    54   29   62 1
    55   30   31 ar
    56   30   63 1
    57   31   32 ar
    58   31   64 1
    59   32   65 1
    60   33   34 1
    61   34   35 1
    62   34   66 1
    63   34   67 1
    64   35   36 1
    65   35   68 1
    66   35   69 1
    67   36   37 1
    68   36   70 1
    69   36   71 1
    70   37   42 1
    71   37   38 1
    72   37   82 1
    73   38   39 1
    74   38   72 1
    75   38   73 1
    76   39   40 1
    77   39   74 1
    78   39   75 1
    79   40   41 1
    80   40   76 1
    81   40   77 1
    82   41   42 1
    83   41   78 1
    84   41   79 1
    85   42   80 1
    86   42   81 1
@<TRIPOS>MOLECULE
CHEMBL394213
   79    83     0     0     0
SMALL
USER_CHARGES

@<TRIPOS>ATOM
      1 C1         -0.2529    0.8008   -0.2668 C.3       1 <0>        -0.1651
      2 C2         -0.1354   -0.7237   -0.2130 C.3       1 <0>         0.1420
      3 H1          0.4073   -1.0775   -1.0897 H         1 <0>         0.0898
      4 C3         -1.5344   -1.3428   -0.1950 C.3       1 <0>        -0.1226
      5 C4         -1.4187   -2.8667   -0.2670 C.3       1 <0>        -0.0777
      6 C5         -2.7967   -3.4765   -0.2493 C.ar      1 <0>        -0.0941
      7 C6         -3.3911   -3.8041    0.9553 C.ar      1 <0>        -0.1009
      8 C7         -4.6540   -4.3636    0.9742 C.ar      1 <0>        -0.1429
      9 C8         -5.3262   -4.5963   -0.2169 C.ar      1 <0>         0.1024
     10 C9         -4.7278   -4.2663   -1.4242 C.ar      1 <0>        -0.1420
     11 C10        -3.4669   -3.7022   -1.4375 C.ar      1 <0>        -0.1002
     12 O1         -6.5685   -5.1470   -0.2009 O.3       1 <0>        -0.5002
     13 N1          0.5875   -1.1152    0.9996 N.am      1 <0>        -0.7270
     14 C11         1.9350   -1.1404    1.0023 C.2       1 <0>         0.5132
     15 O2          2.5492   -0.8389    0.0009 O.2       1 <0>        -0.5264
     16 C12         2.6786   -1.5432    2.2497 C.3       1 <0>        -0.0728
     17 C13         4.1620   -1.4888    1.9898 C.2       1 <0>        -0.1310
     18 C14         4.9970   -2.5769    1.4838 C.ar      1 <0>        -0.0520
     19 C15         4.7400   -3.9000    1.1075 C.ar      1 <0>        -0.0856
     20 C16         5.7605   -4.6909    0.6626 C.ar      1 <0>        -0.1093
     21 C17         7.0544   -4.1944    0.5799 C.ar      1 <0>        -0.1840
     22 C18         7.3331   -2.8912    0.9463 C.ar      1 <0>         0.1050
     23 C19         6.3045   -2.0658    1.4028 C.ar      1 <0>         0.0885
     24 N2          6.2635   -0.7559    1.8312 N.pl3     1 <0>        -0.5800
     25 H2          7.0275   -0.1601    1.8788 H         1 <0>         0.4156
     26 C20         4.9752   -0.4194    2.1754 C.2       1 <0>         0.1504
     27 C21         4.5434    0.9045    2.6736 C.ar      1 <0>        -0.0468
     28 C22         3.3837    1.4975    2.1728 C.ar      1 <0>        -0.0912
     29 C23         2.9861    2.7324    2.6422 C.ar      1 <0>        -0.1147
     30 C24         3.7345    3.3829    3.6069 C.ar      1 <0>        -0.1040
     31 C25         4.8855    2.8006    4.1072 C.ar      1 <0>        -0.1180
     32 C26         5.2907    1.5633    3.6508 C.ar      1 <0>        -0.1059
     33 O3          8.6039   -2.4153    0.8623 O.3       1 <0>        -0.3361
     34 C27         9.6045   -3.3178    0.3863 C.3       1 <0>         0.0288
     35 C28        10.9602   -2.6091    0.3613 C.3       1 <0>        -0.0016
     36 N3         11.3473   -2.2441    1.7306 N.4       1 <0>        -0.3838
     37 C29        12.5678   -1.4296    1.6917 C.3       1 <0>        -0.0076
     38 C30        12.9301   -0.9789    3.1085 C.3       1 <0>        -0.1463
     39 C31        13.1650   -2.2118    3.9860 C.3       1 <0>        -0.1389
     40 C32        11.9116   -3.0914    3.9595 C.3       1 <0>        -0.1451
     41 C33        11.5871   -3.4638    2.5112 C.3       1 <0>        -0.0134
     42 H3          0.7438    1.2418   -0.2796 H         1 <0>         0.0596
     43 H4         -0.7907    1.0921   -1.1691 H         1 <0>         0.0675
     44 H5         -0.7955    1.1546    0.6098 H         1 <0>         0.0584
     45 H6         -2.0449   -1.0603    0.7256 H         1 <0>         0.0720
     46 H7         -2.1030   -0.9807   -1.0516 H         1 <0>         0.0824
     47 H8         -0.9082   -3.1493   -1.1877 H         1 <0>         0.0738
     48 H9         -0.8502   -3.2288    0.5896 H         1 <0>         0.0728
     49 H10        -2.8674   -3.6227    1.8823 H         1 <0>         0.1249
     50 H11        -5.1175   -4.6199    1.9154 H         1 <0>         0.1288
     51 H12        -5.2491   -4.4465   -2.3528 H         1 <0>         0.1292
     52 H13        -3.0024   -3.4411   -2.3769 H         1 <0>         0.1262
     53 H14        -7.2851   -4.4996   -0.1524 H         1 <0>         0.3924
     54 H15         0.0963   -1.3563    1.8005 H         1 <0>         0.4003
     55 H16         2.4264   -0.8590    3.0599 H         1 <0>         0.1033
     56 H17         2.3957   -2.5579    2.5297 H         1 <0>         0.1044
     57 H18         3.7367   -4.2949    1.1691 H         1 <0>         0.1274
     58 H19         5.5594   -5.7116    0.3728 H         1 <0>         0.1308
     59 H20         7.8507   -4.8326    0.2264 H         1 <0>         0.1292
     60 H21         2.7990    0.9910    1.4192 H         1 <0>         0.1324
     61 H22         2.0888    3.1925    2.2554 H         1 <0>         0.1294
     62 H23         3.4192    4.3496    3.9708 H         1 <0>         0.1285
     63 H24         5.4658    3.3139    4.8597 H         1 <0>         0.1278
     64 H25         6.1867    1.1076    4.0456 H         1 <0>         0.1189
     65 H26         9.6585   -4.1822    1.0481 H         1 <0>         0.0869
     66 H27         9.3477   -3.6466   -0.6207 H         1 <0>         0.1100
     67 H28        11.7109   -3.2757   -0.0630 H         1 <0>         0.1494
     68 H29        10.8881   -1.7083   -0.2482 H         1 <0>         0.1413
     69 H30        13.3853   -2.0204    1.2786 H         1 <0>         0.1298
     70 H31        12.4001   -0.5542    1.0642 H         1 <0>         0.1303
     71 H32        13.8375   -0.3758    3.0777 H         1 <0>         0.1131
     72 H33        12.1132   -0.3878    3.5224 H         1 <0>         0.0867
     73 H34        14.0146   -2.7762    3.6017 H         1 <0>         0.0826
     74 H35        13.3679   -1.8972    5.0097 H         1 <0>         0.0945
     75 H36        12.0911   -3.9982    4.5370 H         1 <0>         0.1127
     76 H37        11.0736   -2.5441    4.3911 H         1 <0>         0.0868
     77 H38        10.6954   -4.0902    2.4887 H         1 <0>         0.1284
     78 H39        12.4256   -4.0112    2.0806 H         1 <0>         0.1307
     79 H40        10.6042   -1.7126    2.1587 H         1 <0>         0.4275
@<TRIPOS>BOND
     1    1    2 1
     2    1   42 1
     3    1   43 1
     4    1   44 1
     5    2    3 1
     6    2    4 1
     7    2   13 1
     8    4    5 1
     9    4   45 1
    10    4   46 1
    11    5    6 1
    12    5   47 1
    13    5   48 1
    14    6   11 ar
    15    6    7 ar
    16    7    8 ar
    17    7   49 1
    18    8    9 ar
    19    8   50 1
    20    9   10 ar
    21    9   12 1
    22   10   11 ar
    23   10   51 1
    24   11   52 1
    25   12   53 1
    26   13   14 am
    27   13   54 1
    28   14   15 2
    29   14   16 1
    30   16   17 1
    31   16   55 1
    32   16   56 1
    33   17   26 2
    34   17   18 1
    35   18   23 ar
    36   18   19 ar
    37   19   20 ar
    38   19   57 1
    39   20   21 ar
    40   20   58 1
    41   21   22 ar
    42   21   59 1
    43   22   23 ar
    44   22   33 1
    45   23   24 1
    46   24   25 1
    47   24   26 1
    48   26   27 1
    49   27   32 ar
    50   27   28 ar
    51   28   29 ar
    52   28   60 1
    53   29   30 ar
    54   29   61 1
    55   30   31 ar
    56   30   62 1
    57   31   32 ar
    58   31   63 1
    59   32   64 1
    60   33   34 1
    61   34   35 1
    62   34   65 1
    63   34   66 1
    64   35   36 1
    65   35   67 1
    66   35   68 1
    67   36   41 1
    68   36   37 1
    69   36   79 1
    70   37   38 1
    71   37   69 1
    72   37   70 1
    73   38   39 1
    74   38   71 1
    75   38   72 1
    76   39   40 1
    77   39   73 1
    78   39   74 1
    79   40   41 1
    80   40   75 1
    81   40   76 1
    82   41   77 1
    83   41   78 1
@<TRIPOS>MOLECULE
CHEMBL58449
   60    64     0     0     0
SMALL
USER_CHARGES

@<TRIPOS>ATOM
      1 C1          0.8332    1.3107    0.3404 C.3       1 <0>        -0.1188
      2 C2          0.6299   -0.1806    0.2634 C.ar      1 <0>        -0.1009
      3 C3          0.6351   -0.8141   -0.9614 C.ar      1 <0>        -0.0535
      4 C4          0.4470   -2.1936   -1.0318 C.ar      1 <0>        -0.1117
      5 C5          0.2540   -2.9286    0.1373 C.ar      1 <0>        -0.0856
      6 C6          0.2497   -2.2896    1.3588 C.ar      1 <0>        -0.1328
      7 C7          0.4431   -0.9159    1.4261 C.ar      1 <0>         0.1544
      8 O1          0.4439   -0.2898    2.6316 O.3       1 <0>        -0.4880
      9 C8          0.4516   -2.8778   -2.3473 C.ar      1 <0>         0.2467
     10 C9          0.6501   -2.1369   -3.5067 C.ar      1 <0>        -0.1732
     11 C10         0.6528   -2.7930   -4.7400 C.ar      1 <0>         0.1342
     12 C11         0.4547   -4.1746   -4.7566 C.ar      1 <0>        -0.2117
     13 C12         0.2630   -4.8458   -3.5553 C.ar      1 <0>         0.4563
     14 N1          0.2715   -4.1924   -2.4043 N.ar      1 <0>        -0.5176
     15 N2          0.0644   -6.2218   -3.5620 N.pl3     1 <0>        -0.5896
     16 C13        -0.1387   -6.9387   -2.3007 C.3       1 <0>         0.0534
     17 C14         0.0583   -6.9548   -4.8304 C.3       1 <0>         0.1581
     18 C15         1.4736   -7.2937   -5.2216 C.ar      1 <0>        -0.1181
     19 C16         2.5023   -7.0196   -4.3732 C.ar      1 <0>        -0.0990
     20 C17         3.8172   -7.3256   -4.7175 C.ar      1 <0>        -0.1224
     21 C18         4.1116   -7.9073   -5.9125 C.ar      1 <0>        -0.0853
     22 C19         3.0762   -8.2053   -6.8143 C.ar      1 <0>        -0.0493
     23 C20         1.7378   -7.8996   -6.4614 C.ar      1 <0>        -0.0372
     24 C21         0.7016   -8.2031   -7.3612 C.ar      1 <0>        -0.1251
     25 C22         0.9954   -8.7900   -8.5533 C.ar      1 <0>        -0.0970
     26 C23         2.3108   -9.0965   -8.8976 C.ar      1 <0>        -0.1118
     27 C24         3.3411   -8.8052   -8.0574 C.ar      1 <0>        -0.0983
     28 C25         0.8607   -2.0396   -6.0015 C.ar      1 <0>        -0.1017
     29 C26         0.8549   -2.7079   -7.2241 C.ar      1 <0>        -0.0765
     30 C27         1.0488   -2.0022   -8.3943 C.ar      1 <0>        -0.1194
     31 C28         1.2490   -0.6341   -8.3548 C.ar      1 <0>        -0.0771
     32 C29         1.2561    0.0343   -7.1438 C.ar      1 <0>        -0.1195
     33 C30         1.0566   -0.6605   -5.9680 C.ar      1 <0>        -0.0781
     34 H1          1.8974    1.5280    0.4321 H         1 <0>         0.0837
     35 H2          0.4436    1.7777   -0.5642 H         1 <0>         0.0751
     36 H3          0.3057    1.7049    1.2089 H         1 <0>         0.0778
     37 H4          0.7845   -0.2421   -1.8652 H         1 <0>         0.1438
     38 H5          0.1076   -3.9974    0.0859 H         1 <0>         0.1232
     39 H6          0.1003   -2.8584    2.2647 H         1 <0>         0.1473
     40 H7         -0.4285    0.0137    2.9178 H         1 <0>         0.4046
     41 H8          0.7998   -1.0686   -3.4547 H         1 <0>         0.1777
     42 H9          0.4502   -4.7151   -5.6916 H         1 <0>         0.1771
     43 H10        -1.1913   -6.8920   -2.0216 H         1 <0>         0.0860
     44 H11         0.1589   -7.9802   -2.4227 H         1 <0>         0.1111
     45 H12         0.4653   -6.4775   -1.5193 H         1 <0>         0.0714
     46 H13        -0.5170   -7.8736   -4.7163 H         1 <0>         0.1209
     47 H14        -0.3946   -6.3364   -5.6053 H         1 <0>         0.1055
     48 H15         2.2960   -6.5576   -3.4190 H         1 <0>         0.1100
     49 H16         4.6150   -7.0976   -4.0261 H         1 <0>         0.1257
     50 H17         5.1356   -8.1383   -6.1662 H         1 <0>         0.1330
     51 H18        -0.3225   -7.9720   -7.1077 H         1 <0>         0.1264
     52 H19         0.1973   -9.0221   -9.2429 H         1 <0>         0.1289
     53 H20         2.5166   -9.5625   -9.8499 H         1 <0>         0.1297
     54 H21         4.3555   -9.0477   -8.3379 H         1 <0>         0.1326
     55 H22         0.6994   -3.7762   -7.2559 H         1 <0>         0.1293
     56 H23         1.0446   -2.5192   -9.3425 H         1 <0>         0.1365
     57 H24         1.4007   -0.0859   -9.2729 H         1 <0>         0.1362
     58 H25         1.4136    1.1025   -7.1187 H         1 <0>         0.1376
     59 H26         1.0575   -0.1369   -5.0234 H         1 <0>         0.1317
     60 H27         0.1391   -4.6867   -1.5802 H         1 <0>         0.4330
@<TRIPOS>BOND
     1    1    2 1
     2    1   34 1
     3    1   35 1
     4    1   36 1
     5    2    7 ar
     6    2    3 ar
     7    3    4 ar
     8    3   37 1
     9    4    5 ar
    10    4    9 1
    11    5    6 ar
    12    5   38 1
    13    6    7 ar
    14    6   39 1
    15    7    8 1
    16    8   40 1
    17    9   14 ar
    18    9   10 ar
    19   10   11 ar
    20   10   41 1
    21   11   12 ar
    22   11   28 1
    23   12   13 ar
    24   12   42 1
    25   13   14 ar
    26   13   15 1
    27   14   60 1
    28   15   16 1
    29   15   17 1
    30   16   43 1
    31   16   44 1
    32   16   45 1
    33   17   18 1
    34   17   46 1
    35   17   47 1
    36   18   23 ar
    37   18   19 ar
    38   19   20 ar
    39   19   48 1
    40   20   21 ar
    41   20   49 1
    42   21   22 ar
    43   21   50 1
    44   22   27 ar
    45   22   23 ar
    46   23   24 ar
    47   24   25 ar
    48   24   51 1
    49   25   26 ar
    50   25   52 1
    51   26   27 ar
    52   26   53 1
    53   27   54 1
    54   28   33 ar
    55   28   29 ar
    56   29   30 ar
    57   29   55 1
    58   30   31 ar
    59   30   56 1
    60   31   32 ar
    61   31   57 1
    62   32   33 ar
    63   32   58 1
    64   33   59 1
@<TRIPOS>MOLECULE
CHEMBL457035
   57    60     0     0     0
SMALL
USER_CHARGES

@<TRIPOS>ATOM
      1 C1         -0.0187    1.5258    0.0104 C.3       1 <0>        -0.1621
      2 C2          0.0021   -0.0041    0.0020 C.3       1 <0>        -0.1204
      3 C3          0.7182   -0.4975   -1.2568 C.3       1 <0>        -0.0066
      4 C4          2.1560    0.0171   -1.2406 C.3       1 <0>        -0.1058
      5 C5          2.8430   -0.4745    0.0377 C.3       1 <0>        -0.1419
      6 C6          2.8304   -2.0025    0.0839 C.3       1 <0>         0.2540
      7 C7          1.3876   -2.5161    0.0380 C.3       1 <0>        -0.0972
      8 C8          0.7308   -2.0253   -1.2508 C.3       1 <0>        -0.0741
      9 H1          1.2981   -2.3872   -2.1083 H         1 <0>         0.0768
     10 C9         -0.7137   -2.5161   -1.3521 C.3       1 <0>        -0.1166
     11 C10        -1.2263   -2.2031   -2.7574 C.3       1 <0>        -0.0812
     12 C11        -0.9321   -0.7765   -3.1403 C.ar      1 <0>        -0.0318
     13 C12        -0.0156    0.0122   -2.4645 C.ar      1 <0>        -0.0955
     14 C13         0.2221    1.3165   -2.8750 C.ar      1 <0>        -0.0728
     15 C14        -0.4299    1.8374   -3.9728 C.ar      1 <0>        -0.2127
     16 C15        -1.3327    1.0500   -4.6723 C.ar      1 <0>         0.1275
     17 C16        -1.6058   -0.2520   -4.2348 C.ar      1 <0>        -0.1533
     18 O1         -1.9840    1.5545   -5.7531 O.3       1 <0>        -0.3086
     19 C17        -1.6910    2.9055   -6.1148 C.3       1 <0>         0.1016
     20 C18        -2.5006    3.2880   -7.3269 C.ar      1 <0>        -0.0521
     21 C19        -2.0047    3.0827   -8.6053 C.ar      1 <0>        -0.1497
     22 C20        -2.7758    3.4460   -9.6932 C.ar      1 <0>         0.0988
     23 N1         -3.9688    3.9821   -9.5254 N.ar      1 <0>        -0.4777
     24 C21        -4.4722    4.1918   -8.3248 C.ar      1 <0>         0.0989
     25 C22        -3.7615    3.8482   -7.1903 C.ar      1 <0>        -0.1496
     26 C23         3.5745   -2.5324   -1.0703 C.1       1 <0>        -0.2144
     27 C24         4.1680   -2.9549   -1.9909 C.1       1 <0>        -0.1646
     28 C25         4.9122   -3.4847   -3.1452 C.3       1 <0>        -0.0459
     29 O2          3.4534   -2.4457    1.2912 O.3       1 <0>        -0.5497
     30 H2          1.0039    1.9031    0.0027 H         1 <0>         0.0555
     31 H3         -0.5459    1.8868   -0.8726 H         1 <0>         0.0618
     32 H4         -0.5289    1.8773    0.9072 H         1 <0>         0.0532
     33 H5          0.5293   -0.3651    0.8851 H         1 <0>         0.0744
     34 H6         -1.0205   -0.3814    0.0098 H         1 <0>         0.0678
     35 H7          2.6899   -0.3632   -2.1115 H         1 <0>         0.0669
     36 H8          2.1541    1.1069   -1.2582 H         1 <0>         0.0739
     37 H9          3.8738   -0.1206    0.0534 H         1 <0>         0.0679
     38 H10         2.3143   -0.0820    0.9064 H         1 <0>         0.0860
     39 H11         1.3871   -3.6060    0.0562 H         1 <0>         0.0747
     40 H12         0.8364   -2.1342    0.8973 H         1 <0>         0.0854
     41 H13        -0.7498   -3.5915   -1.1784 H         1 <0>         0.0720
     42 H14        -1.3292   -2.0028   -0.6133 H         1 <0>         0.0741
     43 H15        -0.7435   -2.8711   -3.4707 H         1 <0>         0.0787
     44 H16        -2.3035   -2.3665   -2.7893 H         1 <0>         0.0789
     45 H17         0.9247    1.9293   -2.3297 H         1 <0>         0.1270
     46 H18        -0.2390    2.8531   -4.2862 H         1 <0>         0.1263
     47 H19        -2.3154   -0.8651   -4.7706 H         1 <0>         0.1289
     48 H20        -1.9437    3.5665   -5.2857 H         1 <0>         0.0762
     49 H21        -0.6292    2.9985   -6.3429 H         1 <0>         0.0760
     50 H22        -1.0280    2.6447   -8.7491 H         1 <0>         0.1376
     51 H23        -2.3967    3.2894  -10.6923 H         1 <0>         0.1603
     52 H24        -5.4529    4.6335   -8.2269 H         1 <0>         0.1603
     53 H25        -4.1812    4.0179   -6.2098 H         1 <0>         0.1378
     54 H26         4.9041   -4.5743   -3.1136 H         1 <0>         0.0819
     55 H27         4.4421   -3.1445   -4.0678 H         1 <0>         0.0817
     56 H28         5.9415   -3.1278   -3.1088 H         1 <0>         0.0814
     57 H29         4.3737   -2.1642    1.3852 H         1 <0>         0.3805
@<TRIPOS>BOND
     1    1    2 1
     2    1   30 1
     3    1   31 1
     4    1   32 1
     5    2    3 1
     6    2   33 1
     7    2   34 1
     8    3    8 1
     9    3   13 1
    10    3    4 1
    11    4    5 1
    12    4   35 1
    13    4   36 1
    14    5    6 1
    15    5   37 1
    16    5   38 1
    17    6    7 1
    18    6   26 1
    19    6   29 1
    20    7    8 1
    21    7   39 1
    22    7   40 1
    23    8    9 1
    24    8   10 1
    25   10   11 1
    26   10   41 1
    27   10   42 1
    28   11   12 1
    29   11   43 1
    30   11   44 1
    31   12   17 ar
    32   12   13 ar
    33   13   14 ar
    34   14   15 ar
    35   14   45 1
    36   15   16 ar
    37   15   46 1
    38   16   17 ar
    39   16   18 1
    40   17   47 1
    41   18   19 1
    42   19   20 1
    43   19   48 1
    44   19   49 1
    45   20   25 ar
    46   20   21 ar
    47   21   22 ar
    48   21   50 1
    49   22   23 ar
    50   22   51 1
    51   23   24 ar
    52   24   25 ar
    53   24   52 1
    54   25   53 1
    55   26   27 3
    56   27   28 1
    57   28   54 1
    58   28   55 1
    59   28   56 1
    60   29   57 1
@<TRIPOS>MOLECULE
CHEMBL80560
   38    42     0     0     0
SMALL
USER_CHARGES

@<TRIPOS>ATOM
      1 C1         -0.0169    1.3967    0.0097 C.ar      1 <0>        -0.0884
      2 C2          1.1679    2.0986    0.0022 C.ar      1 <0>        -0.1438
      3 C3          2.3806    1.4203   -0.0130 C.ar      1 <0>         0.1057
      4 C4          2.4060    0.0310   -0.0207 C.ar      1 <0>        -0.1437
      5 C5          1.2279   -0.6822   -0.0138 C.ar      1 <0>        -0.0842
      6 C6          0.0021   -0.0041    0.0020 C.ar      1 <0>        -0.0265
      7 C7         -1.2567   -0.7579    0.0105 C.2       1 <0>        -0.1072
      8 C8         -2.2166   -0.7805   -0.9895 C.2       1 <0>         0.1309
      9 C9         -2.9009   -0.2747   -2.1203 C.2       1 <0>        -0.0896
     10 C10        -4.1572   -0.8451   -2.1982 C.2       1 <0>        -0.1036
     11 C11        -4.3169   -1.7744   -1.1577 C.2       1 <0>         0.1552
     12 C12        -5.1729   -2.5779   -0.4416 C.2       1 <0>        -0.1768
     13 C13        -4.8014   -3.2510    0.7659 C.2       1 <0>        -0.0842
     14 C14        -3.5435   -3.3448    1.2044 C.2       1 <0>        -0.1425
     15 C15        -2.9811   -3.9447    2.4532 C.3       1 <0>        -0.0622
     16 C16        -1.9065   -3.0582    3.0884 C.3       1 <0>        -0.1154
     17 C17        -0.9217   -2.4401    2.0687 C.3       1 <0>        -0.0978
     18 C18        -1.7550   -1.6610    1.1005 C.3       1 <0>        -0.0586
     19 C19        -2.5370   -2.7097    0.2803 C.3       1 <0>         0.1466
     20 N1         -3.0566   -1.7944   -0.6721 N.pl3     1 <0>        -0.5682
     21 O1          3.5462    2.1183   -0.0209 O.3       1 <0>        -0.5000
     22 H1         -0.9587    1.9251    0.0261 H         1 <0>         0.1268
     23 H2          1.1546    3.1785    0.0077 H         1 <0>         0.1301
     24 H3          3.3516   -0.4907   -0.0326 H         1 <0>         0.1305
     25 H4          1.2489   -1.7620   -0.0205 H         1 <0>         0.1273
     26 H5         -2.5019    0.4481   -2.8165 H         1 <0>         0.1533
     27 H6         -4.9021   -0.6116   -2.9445 H         1 <0>         0.1556
     28 H7         -6.1798   -2.7079   -0.8100 H         1 <0>         0.1250
     29 H8         -5.5822   -3.7083    1.3556 H         1 <0>         0.1173
     30 H9         -3.7889   -4.0902    3.1704 H         1 <0>         0.0756
     31 H10        -2.5439   -4.9141    2.2140 H         1 <0>         0.0787
     32 H11        -2.3980   -2.2505    3.6307 H         1 <0>         0.0624
     33 H12        -1.3389   -3.6565    3.8012 H         1 <0>         0.0726
     34 H13        -0.2198   -1.7800    2.5784 H         1 <0>         0.0740
     35 H14        -0.3826   -3.2283    1.5432 H         1 <0>         0.0708
     36 H15        -2.5010   -1.1129    1.6761 H         1 <0>         0.0797
     37 H16        -1.8795   -3.4534   -0.1699 H         1 <0>         0.0833
     38 H17         3.8922    2.3159    0.8602 H         1 <0>         0.3914
@<TRIPOS>BOND
     1    1    6 ar
     2    1    2 ar
     3    1   22 1
     4    2    3 ar
     5    2   23 1
     6    3    4 ar
     7    3   21 1
     8    4    5 ar
     9    4   24 1
    10    5    6 ar
    11    5   25 1
    12    6    7 1
    13    7   18 1
    14    7    8 2
    15    8   20 1
    16    8    9 1
    17    9   10 2
    18    9   26 1
    19   10   11 1
    20   10   27 1
    21   11   20 1
    22   11   12 2
    23   12   13 1
    24   12   28 1
    25   13   14 2
    26   13   29 1
    27   14   19 1
    28   14   15 1
    29   15   16 1
    30   15   30 1
    31   15   31 1
    32   16   17 1
    33   16   32 1
    34   16   33 1
    35   17   18 1
    36   17   34 1
    37   17   35 1
    38   18   19 1
    39   18   36 1
    40   19   20 1
    41   19   37 1
    42   21   38 1
@<TRIPOS>MOLECULE
CHEMBL80560__1
   38    42     0     0     0
SMALL
USER_CHARGES

@<TRIPOS>ATOM
      1 C1         -0.0169    1.3967    0.0097 C.ar      1 <0>        -0.0912
      2 C2          1.1679    2.0986    0.0022 C.ar      1 <0>        -0.1420
      3 C3          2.3806    1.4203   -0.0130 C.ar      1 <0>         0.1025
      4 C4          2.4060    0.0310   -0.0207 C.ar      1 <0>        -0.1424
      5 C5          1.2279   -0.6822   -0.0138 C.ar      1 <0>        -0.0910
      6 C6          0.0021   -0.0041    0.0020 C.ar      1 <0>        -0.0250
      7 C7         -1.2567   -0.7579    0.0105 C.2       1 <0>        -0.1300
      8 C8         -2.1815   -0.7577   -0.9927 C.2       1 <0>         0.1245
      9 C9         -2.5712   -0.3121   -2.2872 C.2       1 <0>        -0.0946
     10 C10        -3.6120   -1.0964   -2.7254 C.2       1 <0>        -0.1028
     11 C11        -3.9142   -2.0188   -1.7440 C.2       1 <0>         0.1522
     12 C12        -4.5904   -3.1921   -1.4906 C.2       1 <0>        -0.1650
     13 C13        -4.2347   -3.8661   -0.2843 C.2       1 <0>        -0.0994
     14 C14        -3.5698   -3.3674    0.7565 C.2       1 <0>        -0.1455
     15 C15        -3.0748   -4.2392    1.8809 C.3       1 <0>        -0.0774
     16 C16        -1.5814   -3.9824    2.0959 C.3       1 <0>        -0.1156
     17 C17        -1.0274   -3.0177    1.0507 C.3       1 <0>        -0.1066
     18 C18        -1.7303   -1.6677    1.1390 C.3       1 <0>        -0.0402
     19 C19        -3.2228   -1.8862    0.8136 C.3       1 <0>         0.1990
     20 N1         -3.1982   -1.5802   -0.6279 N.pl3     1 <0>        -0.5892
     21 O1          3.5462    2.1183   -0.0209 O.3       1 <0>        -0.5001
     22 H1         -0.9587    1.9251    0.0261 H         1 <0>         0.1267
     23 H2          1.1546    3.1785    0.0077 H         1 <0>         0.1298
     24 H3          3.3516   -0.4907   -0.0326 H         1 <0>         0.1294
     25 H4          1.2489   -1.7620   -0.0205 H         1 <0>         0.1267
     26 H5         -2.1246    0.5055   -2.8334 H         1 <0>         0.1531
     27 H6         -4.1107   -1.0055   -3.6791 H         1 <0>         0.1589
     28 H7         -5.3428   -3.5774   -2.1627 H         1 <0>         0.1375
     29 H8         -4.5392   -4.8993   -0.2064 H         1 <0>         0.1096
     30 H9         -3.6205   -4.0009    2.7939 H         1 <0>         0.0760
     31 H10        -3.2311   -5.2872    1.6252 H         1 <0>         0.0705
     32 H11        -1.4318   -3.5574    3.0884 H         1 <0>         0.0658
     33 H12        -1.0435   -4.9281    2.0292 H         1 <0>         0.0674
     34 H13         0.0404   -2.8789    1.2200 H         1 <0>         0.0683
     35 H14        -1.1815   -3.4375    0.0567 H         1 <0>         0.0648
     36 H15        -1.5799   -1.2077    2.1157 H         1 <0>         0.1012
     37 H16        -3.9088   -1.2875    1.4129 H         1 <0>         0.1034
     38 H17         3.8922    2.3159    0.8602 H         1 <0>         0.3909
@<TRIPOS>BOND
     1    1    6 ar
     2    1    2 ar
     3    1   22 1
     4    2    3 ar
     5    2   23 1
     6    3    4 ar
     7    3   21 1
     8    4    5 ar
     9    4   24 1
    10    5    6 ar
    11    5   25 1
    12    6    7 1
    13    7   18 1
    14    7    8 2
    15    8   20 1
    16    8    9 1
    17    9   10 2
    18    9   26 1
    19   10   11 1
    20   10   27 1
    21   11   20 1
    22   11   12 2
    23   12   13 1
    24   12   28 1
    25   13   14 2
    26   13   29 1
    27   14   19 1
    28   14   15 1
    29   15   16 1
    30   15   30 1
    31   15   31 1
    32   16   17 1
    33   16   32 1
    34   16   33 1
    35   17   18 1
    36   17   34 1
    37   17   35 1
    38   18   19 1
    39   18   36 1
    40   19   20 1
    41   19   37 1
    42   21   38 1
@<TRIPOS>MOLECULE
CHEMBL80560__2
   38    42     0     0     0
SMALL
USER_CHARGES

@<TRIPOS>ATOM
      1 C1         -0.0169    1.3967    0.0097 C.ar      1 <0>        -0.0875
      2 C2          1.1679    2.0986    0.0022 C.ar      1 <0>        -0.1436
      3 C3          2.3806    1.4203   -0.0130 C.ar      1 <0>         0.1047
      4 C4          2.4060    0.0310   -0.0207 C.ar      1 <0>        -0.1436
      5 C5          1.2279   -0.6822   -0.0138 C.ar      1 <0>        -0.0885
      6 C6          0.0021   -0.0041    0.0020 C.ar      1 <0>        -0.0266
      7 C7         -1.2567   -0.7579    0.0105 C.2       1 <0>        -0.1302
      8 C8         -2.1815   -0.7577   -0.9927 C.2       1 <0>         0.1233
      9 C9         -2.5952   -0.2719   -2.2651 C.2       1 <0>        -0.0943
     10 C10        -3.9273   -0.5671   -2.4347 C.2       1 <0>        -0.1034
     11 C11        -4.3757   -1.2440   -1.3184 C.2       1 <0>         0.1527
     12 C12        -5.5059   -1.6550   -0.6463 C.2       1 <0>        -0.1661
     13 C13        -5.3108   -2.0593    0.7081 C.2       1 <0>        -0.0992
     14 C14        -4.1611   -2.3757    1.3015 C.2       1 <0>        -0.1451
     15 C15        -4.0610   -2.5855    2.7898 C.3       1 <0>        -0.0773
     16 C16        -2.9372   -1.7081    3.3465 C.3       1 <0>        -0.1158
     17 C17        -2.3393   -0.8163    2.2617 C.3       1 <0>        -0.1030
     18 C18        -1.7303   -1.6677    1.1390 C.3       1 <0>        -0.0408
     19 C19        -2.8750   -2.4713    0.4924 C.3       1 <0>         0.1988
     20 N1         -3.2101   -1.5602   -0.6169 N.pl3     1 <0>        -0.5896
     21 O1          3.5462    2.1183   -0.0209 O.3       1 <0>        -0.5001
     22 H1         -0.9587    1.9251    0.0261 H         1 <0>         0.1254
     23 H2          1.1546    3.1785    0.0077 H         1 <0>         0.1295
     24 H3          3.3516   -0.4907   -0.0326 H         1 <0>         0.1299
     25 H4          1.2489   -1.7620   -0.0205 H         1 <0>         0.1273
     26 H5         -1.9678    0.2429   -2.9777 H         1 <0>         0.1530
     27 H6         -4.5237   -0.3121   -3.2982 H         1 <0>         0.1587
     28 H7         -6.4788   -1.6698   -1.1150 H         1 <0>         0.1373
     29 H8         -6.1972   -2.1157    1.3225 H         1 <0>         0.1094
     30 H9         -5.0048   -2.3108    3.2607 H         1 <0>         0.0703
     31 H10        -3.8413   -3.6331    2.9960 H         1 <0>         0.0758
     32 H11        -3.3359   -1.0812    4.1441 H         1 <0>         0.0670
     33 H12        -2.1542   -2.3474    3.7544 H         1 <0>         0.0655
     34 H13        -3.1217   -0.1802    1.8477 H         1 <0>         0.0644
     35 H14        -1.5620   -0.1899    2.6994 H         1 <0>         0.0670
     36 H15        -0.9259   -2.3058    1.5050 H         1 <0>         0.1017
     37 H16        -2.6003   -3.4861    0.2048 H         1 <0>         0.1018
     38 H17         3.8922    2.3159    0.8602 H         1 <0>         0.3913
@<TRIPOS>BOND
     1    1    6 ar
     2    1    2 ar
     3    1   22 1
     4    2    3 ar
     5    2   23 1
     6    3    4 ar
     7    3   21 1
     8    4    5 ar
     9    4   24 1
    10    5    6 ar
    11    5   25 1
    12    6    7 1
    13    7   18 1
    14    7    8 2
    15    8   20 1
    16    8    9 1
    17    9   10 2
    18    9   26 1
    19   10   11 1
    20   10   27 1
    21   11   20 1
    22   11   12 2
    23   12   13 1
    24   12   28 1
    25   13   14 2
    26   13   29 1
    27   14   19 1
    28   14   15 1
    29   15   16 1
    30   15   30 1
    31   15   31 1
    32   16   17 1
    33   16   32 1
    34   16   33 1
    35   17   18 1
    36   17   34 1
    37   17   35 1
    38   18   19 1
    39   18   36 1
    40   19   20 1
    41   19   37 1
    42   21   38 1
@<TRIPOS>MOLECULE
CHEMBL80560__3
   38    42     0     0     0
SMALL
USER_CHARGES

@<TRIPOS>ATOM
      1 C1         -0.0169    1.3967    0.0097 C.ar      1 <0>        -0.0878
      2 C2          1.1679    2.0986    0.0022 C.ar      1 <0>        -0.1422
      3 C3          2.3806    1.4203   -0.0130 C.ar      1 <0>         0.1041
      4 C4          2.4060    0.0310   -0.0207 C.ar      1 <0>        -0.1427
      5 C5          1.2279   -0.6822   -0.0138 C.ar      1 <0>        -0.0887
      6 C6          0.0021   -0.0041    0.0020 C.ar      1 <0>        -0.0245
      7 C7         -1.2567   -0.7579    0.0105 C.2       1 <0>        -0.1075
      8 C8         -2.2166   -0.7805   -0.9895 C.2       1 <0>         0.1311
      9 C9         -2.6905   -0.6280   -2.3142 C.2       1 <0>        -0.0893
     10 C10        -3.8497   -1.3614   -2.4816 C.2       1 <0>        -0.1036
     11 C11        -4.1985   -1.9732   -1.2668 C.2       1 <0>         0.1547
     12 C12        -4.9831   -2.8967   -0.6166 C.2       1 <0>        -0.1761
     13 C13        -4.7780   -3.2904    0.7443 C.2       1 <0>        -0.0846
     14 C14        -3.9538   -2.6563    1.5823 C.2       1 <0>        -0.1421
     15 C15        -3.5714   -2.9546    2.9967 C.3       1 <0>        -0.0622
     16 C16        -2.0689   -2.7866    3.2380 C.3       1 <0>        -0.1156
     17 C17        -1.4639   -1.5307    2.5684 C.3       1 <0>        -0.0969
     18 C18        -1.7550   -1.6610    1.1005 C.3       1 <0>        -0.0577
     19 C19        -3.2865   -1.4517    0.9709 C.3       1 <0>         0.1462
     20 N1         -3.3007   -1.3846   -0.4471 N.pl3     1 <0>        -0.5683
     21 O1          3.5462    2.1183   -0.0209 O.3       1 <0>        -0.5000
     22 H1         -0.9587    1.9251    0.0261 H         1 <0>         0.1265
     23 H2          1.1546    3.1785    0.0077 H         1 <0>         0.1302
     24 H3          3.3516   -0.4907   -0.0326 H         1 <0>         0.1299
     25 H4          1.2489   -1.7620   -0.0205 H         1 <0>         0.1264
     26 H5         -2.2181   -0.0287   -3.0785 H         1 <0>         0.1532
     27 H6         -4.4029   -1.4500   -3.4050 H         1 <0>         0.1555
     28 H7         -5.7981   -3.3491   -1.1621 H         1 <0>         0.1251
     29 H8         -5.3204   -4.1479    1.1142 H         1 <0>         0.1174
     30 H9         -4.1136   -2.2802    3.6594 H         1 <0>         0.0787
     31 H10        -3.8546   -3.9809    3.2306 H         1 <0>         0.0756
     32 H11        -1.8939   -2.7263    4.3122 H         1 <0>         0.0723
     33 H12        -1.5544   -3.6674    2.8540 H         1 <0>         0.0623
     34 H13        -1.9305   -0.6309    2.9691 H         1 <0>         0.0719
     35 H14        -0.3867   -1.5006    2.7327 H         1 <0>         0.0728
     36 H15        -1.5617   -2.6903    0.7986 H         1 <0>         0.0803
     37 H16        -3.6237   -0.5258    1.4368 H         1 <0>         0.0847
     38 H17         3.8922    2.3159    0.8602 H         1 <0>         0.3912
@<TRIPOS>BOND
     1    1    6 ar
     2    1    2 ar
     3    1   22 1
     4    2    3 ar
     5    2   23 1
     6    3    4 ar
     7    3   21 1
     8    4    5 ar
     9    4   24 1
    10    5    6 ar
    11    5   25 1
    12    6    7 1
    13    7   18 1
    14    7    8 2
    15    8   20 1
    16    8    9 1
    17    9   10 2
    18    9   26 1
    19   10   11 1
    20   10   27 1
    21   11   20 1
    22   11   12 2
    23   12   13 1
    24   12   28 1
    25   13   14 2
    26   13   29 1
    27   14   19 1
    28   14   15 1
    29   15   16 1
    30   15   30 1
    31   15   31 1
    32   16   17 1
    33   16   32 1
    34   16   33 1
    35   17   18 1
    36   17   34 1
    37   17   35 1
    38   18   19 1
    39   18   36 1
    40   19   20 1
    41   19   37 1
    42   21   38 1
@<TRIPOS>MOLECULE
CHEMBL80976
   41    45     0     0     0
SMALL
USER_CHARGES

@<TRIPOS>ATOM
      1 C1         -0.0169    1.3967    0.0097 C.ar      1 <0>        -0.0883
      2 C2          1.1679    2.0986    0.0022 C.ar      1 <0>        -0.1436
      3 C3          2.3806    1.4203   -0.0130 C.ar      1 <0>         0.1059
      4 C4          2.4060    0.0310   -0.0207 C.ar      1 <0>        -0.1436
      5 C5          1.2279   -0.6822   -0.0138 C.ar      1 <0>        -0.0854
      6 C6          0.0021   -0.0041    0.0020 C.ar      1 <0>        -0.0264
      7 C7         -1.2567   -0.7579    0.0105 C.2       1 <0>        -0.1059
      8 C8         -2.2126   -0.7782   -0.9893 C.2       1 <0>         0.1297
      9 C9         -2.8586   -0.2760   -2.1454 C.2       1 <0>        -0.0917
     10 C10        -4.1152   -0.8380   -2.2543 C.2       1 <0>        -0.1056
     11 C11        -4.3126   -1.7491   -1.2037 C.2       1 <0>         0.1580
     12 C12        -5.1998   -2.5505   -0.5254 C.2       1 <0>        -0.1837
     13 C13        -4.8841   -3.1652    0.7222 C.2       1 <0>        -0.0882
     14 C14        -3.6319   -3.2435    1.2268 C.2       1 <0>        -0.1528
     15 C15        -3.3170   -3.7404    2.6075 C.3       1 <0>        -0.0595
     16 C16        -2.9375   -2.5836    3.5302 C.3       1 <0>        -0.1170
     17 C17        -1.4358   -2.1906    3.4416 C.3       1 <0>        -0.1192
     18 C18        -0.8616   -2.4451    2.0324 C.3       1 <0>        -0.1049
     19 C19        -1.7504   -1.6575    1.0992 C.3       1 <0>        -0.0606
     20 C20        -2.5841   -2.7013    0.3158 C.3       1 <0>         0.1656
     21 N1         -3.0763   -1.7665   -0.6637 N.pl3     1 <0>        -0.5689
     22 O1          3.5462    2.1183   -0.0209 O.3       1 <0>        -0.5000
     23 H1         -0.9587    1.9251    0.0261 H         1 <0>         0.1265
     24 H2          1.1546    3.1785    0.0077 H         1 <0>         0.1300
     25 H3          3.3516   -0.4907   -0.0326 H         1 <0>         0.1306
     26 H4          1.2489   -1.7620   -0.0205 H         1 <0>         0.1281
     27 H5         -2.4334    0.4373   -2.8360 H         1 <0>         0.1532
     28 H6         -4.8349   -0.6116   -3.0271 H         1 <0>         0.1554
     29 H7         -6.1761   -2.7213   -0.9546 H         1 <0>         0.1244
     30 H8         -5.6919   -3.5935    1.2971 H         1 <0>         0.1162
     31 H9         -4.1911   -4.2500    3.0129 H         1 <0>         0.0746
     32 H10        -2.4859   -4.4436    2.5543 H         1 <0>         0.0761
     33 H11        -3.5420   -1.7151    3.2687 H         1 <0>         0.0587
     34 H12        -3.1644   -2.8673    4.5579 H         1 <0>         0.0677
     35 H13        -1.3303   -1.1328    3.6827 H         1 <0>         0.0636
     36 H14        -0.8715   -2.7770    4.1667 H         1 <0>         0.0636
     37 H15         0.1655   -2.0854    1.9709 H         1 <0>         0.0738
     38 H16        -0.9081   -3.5068    1.7902 H         1 <0>         0.0765
     39 H17        -2.4560   -1.0941    1.7098 H         1 <0>         0.0885
     40 H18        -1.9687   -3.4908   -0.1156 H         1 <0>         0.0870
     41 H19         3.8922    2.3159    0.8602 H         1 <0>         0.3915
@<TRIPOS>BOND
     1    1    6 ar
     2    1    2 ar
     3    1   23 1
     4    2    3 ar
     5    2   24 1
     6    3    4 ar
     7    3   22 1
     8    4    5 ar
     9    4   25 1
    10    5    6 ar
    11    5   26 1
    12    6    7 1
    13    7   19 1
    14    7    8 2
    15    8   21 1
    16    8    9 1
    17    9   10 2
    18    9   27 1
    19   10   11 1
    20   10   28 1
    21   11   21 1
    22   11   12 2
    23   12   13 1
    24   12   29 1
    25   13   14 2
    26   13   30 1
    27   14   20 1
    28   14   15 1
    29   15   16 1
    30   15   31 1
    31   15   32 1
    32   16   17 1
    33   16   33 1
    34   16   34 1
    35   17   18 1
    36   17   35 1
    37   17   36 1
    38   18   19 1
    39   18   37 1
    40   18   38 1
    41   19   20 1
    42   19   39 1
    43   20   21 1
    44   20   40 1
    45   22   41 1
@<TRIPOS>MOLECULE
CHEMBL80976__1
   41    45     0     0     0
SMALL
USER_CHARGES

@<TRIPOS>ATOM
      1 C1         -0.0169    1.3967    0.0097 C.ar      1 <0>        -0.0904
      2 C2          1.1679    2.0986    0.0022 C.ar      1 <0>        -0.1421
      3 C3          2.3806    1.4203   -0.0130 C.ar      1 <0>         0.1042
      4 C4          2.4060    0.0310   -0.0207 C.ar      1 <0>        -0.1424
      5 C5          1.2279   -0.6822   -0.0138 C.ar      1 <0>        -0.0874
      6 C6          0.0021   -0.0041    0.0020 C.ar      1 <0>        -0.0246
      7 C7         -1.2567   -0.7579    0.0105 C.2       1 <0>        -0.1087
      8 C8         -2.2023   -0.7743   -0.9852 C.2       1 <0>         0.1109
      9 C9         -2.6214   -0.2956   -2.2559 C.2       1 <0>        -0.0919
     10 C10        -3.6589   -1.0804   -2.6989 C.2       1 <0>        -0.1072
     11 C11        -3.9195   -2.0423   -1.7437 C.2       1 <0>         0.1503
     12 C12        -4.5647   -3.2394   -1.5283 C.2       1 <0>        -0.1647
     13 C13        -4.1839   -3.9476   -0.3579 C.2       1 <0>        -0.1068
     14 C14        -3.5079   -3.4903    0.7161 C.2       1 <0>        -0.1423
     15 C15        -3.1297   -4.4733    1.7689 C.3       1 <0>        -0.0668
     16 C16        -2.6222   -3.9709    3.0719 C.3       1 <0>        -0.1078
     17 C17        -1.4546   -3.0837    3.1642 C.3       1 <0>        -0.1070
     18 C18        -0.8718   -2.3539    2.0155 C.3       1 <0>        -0.0764
     19 C19        -1.7448   -1.6557    1.1020 C.3       1 <0>        -0.0583
     20 C20        -3.1623   -2.0283    0.8068 C.3       1 <0>         0.2356
     21 N1         -3.1877   -1.6432   -0.6250 N.pl3     1 <0>        -0.5874
     22 O1          3.5462    2.1183   -0.0209 O.3       1 <0>        -0.4998
     23 H1         -0.9587    1.9251    0.0261 H         1 <0>         0.1270
     24 H2          1.1546    3.1785    0.0077 H         1 <0>         0.1303
     25 H3          3.3516   -0.4907   -0.0326 H         1 <0>         0.1303
     26 H4          1.2489   -1.7620   -0.0205 H         1 <0>         0.1273
     27 H5         -2.1962    0.5447   -2.7847 H         1 <0>         0.1532
     28 H6         -4.1822   -0.9642   -3.6365 H         1 <0>         0.1591
     29 H7         -5.3149   -3.6164   -2.2076 H         1 <0>         0.1373
     30 H8         -4.4733   -4.9875   -0.3229 H         1 <0>         0.1080
     31 H9         -4.0054   -5.0896    1.9729 H         1 <0>         0.0730
     32 H10        -2.3656   -5.1272    1.3486 H         1 <0>         0.0658
     33 H11        -3.4509   -3.4550    3.5569 H         1 <0>         0.0534
     34 H12        -2.4047   -4.8452    3.6854 H         1 <0>         0.0657
     35 H13        -1.6967   -2.3326    3.9160 H         1 <0>         0.0541
     36 H14        -0.6482   -3.6788    3.5928 H         1 <0>         0.0620
     37 H15        -0.1638   -1.6276    2.4147 H         1 <0>         0.0721
     38 H16        -0.2984   -3.0717    1.4289 H         1 <0>         0.0537
     39 H17        -2.0116   -0.8416    1.7759 H         1 <0>         0.0528
     40 H18        -3.8738   -1.4755    1.4202 H         1 <0>         0.0946
     41 H19         3.8922    2.3159    0.8602 H         1 <0>         0.3912
@<TRIPOS>BOND
     1    1    6 ar
     2    1    2 ar
     3    1   23 1
     4    2    3 ar
     5    2   24 1
     6    3    4 ar
     7    3   22 1
     8    4    5 ar
     9    4   25 1
    10    5    6 ar
    11    5   26 1
    12    6    7 1
    13    7   19 1
    14    7    8 2
    15    8   21 1
    16    8    9 1
    17    9   10 2
    18    9   27 1
    19   10   11 1
    20   10   28 1
    21   11   21 1
    22   11   12 2
    23   12   13 1
    24   12   29 1
    25   13   14 2
    26   13   30 1
    27   14   20 1
    28   14   15 1
    29   15   16 1
    30   15   31 1
    31   15   32 1
    32   16   17 1
    33   16   33 1
    34   16   34 1
    35   17   18 1
    36   17   35 1
    37   17   36 1
    38   18   19 1
    39   18   37 1
    40   18   38 1
    41   19   20 1
    42   19   39 1
    43   20   21 1
    44   20   40 1
    45   22   41 1
@<TRIPOS>MOLECULE
CHEMBL80976__2
   41    45     0     0     0
SMALL
USER_CHARGES

@<TRIPOS>ATOM
      1 C1         -0.0169    1.3967    0.0097 C.ar      1 <0>        -0.0837
      2 C2          1.1679    2.0986    0.0022 C.ar      1 <0>        -0.1434
      3 C3          2.3806    1.4203   -0.0130 C.ar      1 <0>         0.1069
      4 C4          2.4060    0.0310   -0.0207 C.ar      1 <0>        -0.1438
      5 C5          1.2279   -0.6822   -0.0138 C.ar      1 <0>        -0.0884
      6 C6          0.0021   -0.0041    0.0020 C.ar      1 <0>        -0.0255
      7 C7         -1.2567   -0.7579    0.0105 C.2       1 <0>        -0.1104
      8 C8         -2.2025   -0.7745   -0.9851 C.2       1 <0>         0.1096
      9 C9         -2.6003   -0.3317   -2.2754 C.2       1 <0>        -0.0914
     10 C10        -3.9328   -0.6214   -2.4462 C.2       1 <0>        -0.1078
     11 C11        -4.3959   -1.2446   -1.3047 C.2       1 <0>         0.1512
     12 C12        -5.5402   -1.6067   -0.6301 C.2       1 <0>        -0.1661
     13 C13        -5.3698   -1.9637    0.7339 C.2       1 <0>        -0.1063
     14 C14        -4.2298   -2.2823    1.3807 C.2       1 <0>        -0.1422
     15 C15        -4.3049   -2.5060    2.8513 C.3       1 <0>        -0.0667
     16 C16        -3.1370   -3.1073    3.5463 C.3       1 <0>        -0.1077
     17 C17        -1.7965   -2.5094    3.4788 C.3       1 <0>        -0.1071
     18 C18        -1.3937   -1.4782    2.4960 C.3       1 <0>        -0.0762
     19 C19        -1.7451   -1.6558    1.1019 C.3       1 <0>        -0.0554
     20 C20        -2.9446   -2.3934    0.6062 C.3       1 <0>         0.2353
     21 N1         -3.2482   -1.5420   -0.5692 N.pl3     1 <0>        -0.5881
     22 O1          3.5462    2.1183   -0.0209 O.3       1 <0>        -0.4998
     23 H1         -0.9587    1.9251    0.0261 H         1 <0>         0.1273
     24 H2          1.1546    3.1785    0.0077 H         1 <0>         0.1307
     25 H3          3.3516   -0.4907   -0.0326 H         1 <0>         0.1304
     26 H4          1.2489   -1.7620   -0.0205 H         1 <0>         0.1264
     27 H5         -1.9624    0.1519   -3.0004 H         1 <0>         0.1530
     28 H6         -4.5192   -0.3987   -3.3254 H         1 <0>         0.1589
     29 H7         -6.5081   -1.6189   -1.1090 H         1 <0>         0.1371
     30 H8         -6.2697   -1.9821    1.3308 H         1 <0>         0.1079
     31 H9         -4.5067   -1.5430    3.3204 H         1 <0>         0.0657
     32 H10        -5.1665   -3.1455    3.0429 H         1 <0>         0.0729
     33 H11        -3.3990   -3.1785    4.6019 H         1 <0>         0.0655
     34 H12        -3.0456   -4.1312    3.1839 H         1 <0>         0.0534
     35 H13        -1.5957   -2.0905    4.4648 H         1 <0>         0.0615
     36 H14        -1.0957   -3.3361    3.3630 H         1 <0>         0.0539
     37 H15        -1.8155   -0.5290    2.8262 H         1 <0>         0.0549
     38 H16        -0.3091   -1.3828    2.5478 H         1 <0>         0.0711
     39 H17        -1.0468   -2.4612    0.8741 H         1 <0>         0.0518
     40 H18        -2.7091   -3.4258    0.3479 H         1 <0>         0.0929
     41 H19         3.8922    2.3159    0.8602 H         1 <0>         0.3917
@<TRIPOS>BOND
     1    1    6 ar
     2    1    2 ar
     3    1   23 1
     4    2    3 ar
     5    2   24 1
     6    3    4 ar
     7    3   22 1
     8    4    5 ar
     9    4   25 1
    10    5    6 ar
    11    5   26 1
    12    6    7 1
    13    7   19 1
    14    7    8 2
    15    8   21 1
    16    8    9 1
    17    9   10 2
    18    9   27 1
    19   10   11 1
    20   10   28 1
    21   11   21 1
    22   11   12 2
    23   12   13 1
    24   12   29 1
    25   13   14 2
    26   13   30 1
    27   14   20 1
    28   14   15 1
    29   15   16 1
    30   15   31 1
    31   15   32 1
    32   16   17 1
    33   16   33 1
    34   16   34 1
    35   17   18 1
    36   17   35 1
    37   17   36 1
    38   18   19 1
    39   18   37 1
    40   18   38 1
    41   19   20 1
    42   19   39 1
    43   20   21 1
    44   20   40 1
    45   22   41 1
@<TRIPOS>MOLECULE
CHEMBL80976__3
   41    45     0     0     0
SMALL
USER_CHARGES

@<TRIPOS>ATOM
      1 C1         -0.0169    1.3967    0.0097 C.ar      1 <0>        -0.0877
      2 C2          1.1679    2.0986    0.0022 C.ar      1 <0>        -0.1424
      3 C3          2.3806    1.4203   -0.0130 C.ar      1 <0>         0.1044
      4 C4          2.4060    0.0310   -0.0207 C.ar      1 <0>        -0.1429
      5 C5          1.2279   -0.6822   -0.0138 C.ar      1 <0>        -0.0877
      6 C6          0.0021   -0.0041    0.0020 C.ar      1 <0>        -0.0254
      7 C7         -1.2567   -0.7579    0.0105 C.2       1 <0>        -0.1059
      8 C8         -2.2126   -0.7782   -0.9894 C.2       1 <0>         0.1295
      9 C9         -2.6775   -0.5801   -2.3125 C.2       1 <0>        -0.0913
     10 C10        -3.8428   -1.2953   -2.5055 C.2       1 <0>        -0.1057
     11 C11        -4.1955   -1.9454   -1.3115 C.2       1 <0>         0.1576
     12 C12        -5.0107   -2.8677   -0.6995 C.2       1 <0>        -0.1831
     13 C13        -4.7797   -3.3402    0.6262 C.2       1 <0>        -0.0885
     14 C14        -3.9210   -2.7578    1.4936 C.2       1 <0>        -0.1526
     15 C15        -3.5526   -3.3443    2.8250 C.3       1 <0>        -0.0597
     16 C16        -2.1392   -3.9230    2.7935 C.3       1 <0>        -0.1170
     17 C17        -1.0331   -2.8658    3.0698 C.3       1 <0>        -0.1196
     18 C18        -1.4449   -1.4653    2.5704 C.3       1 <0>        -0.1021
     19 C19        -1.7504   -1.6575    1.0992 C.3       1 <0>        -0.0593
     20 C20        -3.2925   -1.5122    0.9691 C.3       1 <0>         0.1653
     21 N1         -3.2885   -1.4104   -0.4682 N.pl3     1 <0>        -0.5689
     22 O1          3.5462    2.1183   -0.0209 O.3       1 <0>        -0.5000
     23 H1         -0.9587    1.9251    0.0261 H         1 <0>         0.1267
     24 H2          1.1546    3.1785    0.0077 H         1 <0>         0.1302
     25 H3          3.3516   -0.4907   -0.0326 H         1 <0>         0.1297
     26 H4          1.2489   -1.7620   -0.0205 H         1 <0>         0.1259
     27 H5         -2.1947    0.0364   -3.0563 H         1 <0>         0.1531
     28 H6         -4.3971   -1.3466   -3.4310 H         1 <0>         0.1554
     29 H7         -5.8606   -3.2505   -1.2450 H         1 <0>         0.1244
     30 H8         -5.3222   -4.2135    0.9567 H         1 <0>         0.1162
     31 H9         -3.6041   -2.5657    3.5861 H         1 <0>         0.0761
     32 H10        -4.2585   -4.1362    3.0754 H         1 <0>         0.0746
     33 H11        -2.0666   -4.7092    3.5450 H         1 <0>         0.0677
     34 H12        -1.9638   -4.3639    1.8123 H         1 <0>         0.0587
     35 H13        -0.8455   -2.8197    4.1425 H         1 <0>         0.0632
     36 H14        -0.1171   -3.1689    2.5627 H         1 <0>         0.0636
     37 H15        -2.3306   -1.1183    3.1026 H         1 <0>         0.0766
     38 H16        -0.6234   -0.7605    2.6984 H         1 <0>         0.0724
     39 H17        -1.5090   -2.6844    0.8250 H         1 <0>         0.0884
     40 H18        -3.6790   -0.6200    1.4617 H         1 <0>         0.0884
     41 H19         3.8922    2.3159    0.8602 H         1 <0>         0.3913
@<TRIPOS>BOND
     1    1    6 ar
     2    1    2 ar
     3    1   23 1
     4    2    3 ar
     5    2   24 1
     6    3    4 ar
     7    3   22 1
     8    4    5 ar
     9    4   25 1
    10    5    6 ar
    11    5   26 1
    12    6    7 1
    13    7   19 1
    14    7    8 2
    15    8   21 1
    16    8    9 1
    17    9   10 2
    18    9   27 1
    19   10   11 1
    20   10   28 1
    21   11   21 1
    22   11   12 2
    23   12   13 1
    24   12   29 1
    25   13   14 2
    26   13   30 1
    27   14   20 1
    28   14   15 1
    29   15   16 1
    30   15   31 1
    31   15   32 1
    32   16   17 1
    33   16   33 1
    34   16   34 1
    35   17   18 1
    36   17   35 1
    37   17   36 1
    38   18   19 1
    39   18   37 1
    40   18   38 1
    41   19   20 1
    42   19   39 1
    43   20   21 1
    44   20   40 1
    45   22   41 1
@<TRIPOS>MOLECULE
CHEMBL241256
   88    92     0     0     0
SMALL
USER_CHARGES

@<TRIPOS>ATOM
      1 C1         -0.0187    1.5258    0.0104 C.3       1 <0>        -0.1653
      2 C2          0.0021   -0.0041    0.0020 C.3       1 <0>         0.1423
      3 H1          0.5123   -0.3556   -0.8948 H         1 <0>         0.0890
      4 C3         -1.4333   -0.5336    0.0129 C.3       1 <0>        -0.1220
      5 C4         -1.4157   -2.0577   -0.1212 C.3       1 <0>        -0.0785
      6 C5         -2.8295   -2.5793   -0.1105 C.ar      1 <0>        -0.0921
      7 C6         -3.4314   -2.9172    1.0875 C.ar      1 <0>        -0.1007
      8 C7         -4.7271   -3.3960    1.1000 C.ar      1 <0>        -0.1427
      9 C8         -5.4247   -3.5373   -0.0909 C.ar      1 <0>         0.1009
     10 C9         -4.8186   -3.1971   -1.2916 C.ar      1 <0>        -0.1425
     11 C10        -3.5245   -2.7138   -1.2982 C.ar      1 <0>        -0.1008
     12 O1         -6.6993   -4.0085   -0.0813 O.3       1 <0>        -0.5008
     13 N1          0.7106   -0.4894    1.1889 N.am      1 <0>        -0.7294
     14 C11         2.0538   -0.5998    1.1737 C.2       1 <0>         0.5131
     15 O2          2.6758   -0.2974    0.1774 O.2       1 <0>        -0.5240
     16 C12         2.7826   -1.0990    2.3946 C.3       1 <0>        -0.0691
     17 C13         4.2638   -1.1281    2.1185 C.2       1 <0>        -0.1413
     18 C14         5.0227   -2.2455    1.5590 C.ar      1 <0>        -0.0478
     19 C15         4.6771   -3.5319    1.1332 C.ar      1 <0>        -0.1055
     20 C16         5.6542   -4.3722    0.6397 C.ar      1 <0>         0.0990
     21 C17         6.9773   -3.9434    0.5656 C.ar      1 <0>        -0.1796
     22 C18         7.3297   -2.6790    0.9823 C.ar      1 <0>        -0.0871
     23 C19         6.3607   -1.8157    1.4825 C.ar      1 <0>         0.0772
     24 N2          6.4067   -0.5238    1.9641 N.pl3     1 <0>        -0.5861
     25 H2          7.2073    0.0202    2.0265 H         1 <0>         0.4173
     26 C20         5.1452   -0.1207    2.3362 C.2       1 <0>         0.1527
     27 C21         4.8033    1.2064    2.8922 C.ar      1 <0>        -0.0442
     28 C22         3.6787    1.8911    2.4299 C.ar      1 <0>        -0.0929
     29 C23         3.3649    3.1286    2.9530 C.ar      1 <0>        -0.1171
     30 C24         4.1625    3.6907    3.9339 C.ar      1 <0>        -0.1067
     31 C25         5.2791    3.0172    4.3962 C.ar      1 <0>        -0.1175
     32 C26         5.6006    1.7766    3.8855 C.ar      1 <0>        -0.1045
     33 O3          5.3240   -5.6244    0.2246 O.3       1 <0>        -0.3172
     34 C27         6.3836   -6.4427   -0.2752 C.3       1 <0>         0.0599
     35 C28         5.8236   -7.8046   -0.6907 C.3       1 <0>        -0.1204
     36 C29         6.9580   -8.6807   -1.2259 C.3       1 <0>        -0.1144
     37 C30         6.3981  -10.0425   -1.6414 C.3       1 <0>        -0.1481
     38 C31         7.5325  -10.9187   -2.1766 C.3       1 <0>        -0.0106
     39 N3          6.9949  -12.2262   -2.5755 N.4       1 <0>        -0.3831
     40 C32         6.4799  -12.9238   -1.3912 C.3       1 <0>        -0.0122
     41 C33         5.8456  -14.2513   -1.8121 C.3       1 <0>        -0.1462
     42 C34         6.9027  -15.1207   -2.4991 C.3       1 <0>        -0.1396
     43 C35         7.4860  -14.3531   -3.6890 C.3       1 <0>        -0.1466
     44 C36         8.0595  -13.0219   -3.1985 C.3       1 <0>        -0.0067
     45 H3          1.0039    1.9031    0.0027 H         1 <0>         0.0608
     46 H4         -0.5459    1.8868   -0.8726 H         1 <0>         0.0662
     47 H5         -0.5289    1.8773    0.9072 H         1 <0>         0.0581
     48 H6         -1.9156   -0.2570    0.9504 H         1 <0>         0.0718
     49 H7         -1.9862   -0.1019   -0.8214 H         1 <0>         0.0814
     50 H8         -0.9334   -2.3344   -1.0587 H         1 <0>         0.0735
     51 H9         -0.8628   -2.4894    0.7131 H         1 <0>         0.0736
     52 H10        -2.8879   -2.8071    2.0143 H         1 <0>         0.1256
     53 H11        -5.1966   -3.6605    2.0359 H         1 <0>         0.1285
     54 H12        -5.3596   -3.3061   -2.2200 H         1 <0>         0.1285
     55 H13        -3.0538   -2.4447   -2.2322 H         1 <0>         0.1260
     56 H14        -7.3727   -3.3195    0.0019 H         1 <0>         0.3923
     57 H15         0.2131   -0.7312    1.9857 H         1 <0>         0.3994
     58 H16         2.5826   -0.4337    3.2345 H         1 <0>         0.1014
     59 H17         2.4385   -2.1044    2.6374 H         1 <0>         0.1016
     60 H18         3.6516   -3.8658    1.1905 H         1 <0>         0.1276
     61 H19         7.7343   -4.6090    0.1778 H         1 <0>         0.1282
     62 H20         8.3590   -2.3577    0.9207 H         1 <0>         0.1251
     63 H21         3.0555    1.4535    1.6640 H         1 <0>         0.1311
     64 H22         2.4950    3.6598    2.5959 H         1 <0>         0.1274
     65 H23         3.9125    4.6597    4.3402 H         1 <0>         0.1270
     66 H24         5.8978    3.4616    5.1618 H         1 <0>         0.1279
     67 H25         6.4700    1.2498    4.2503 H         1 <0>         0.1222
     68 H26         6.8400   -5.9587   -1.1387 H         1 <0>         0.0613
     69 H27         7.1342   -6.5806    0.5030 H         1 <0>         0.0613
     70 H28         5.3672   -8.2885    0.1727 H         1 <0>         0.0780
     71 H29         5.0730   -7.6667   -1.4689 H         1 <0>         0.0783
     72 H30         7.4145   -8.1967   -2.0894 H         1 <0>         0.0779
     73 H31         7.7087   -8.8186   -0.4477 H         1 <0>         0.0775
     74 H32         5.9417  -10.5265   -0.7780 H         1 <0>         0.0891
     75 H33         5.6474   -9.9047   -2.4196 H         1 <0>         0.0891
     76 H34         7.9890  -10.4347   -3.0400 H         1 <0>         0.1313
     77 H35         8.2832  -11.0565   -1.3984 H         1 <0>         0.1296
     78 H36         7.2992  -13.1166   -0.6987 H         1 <0>         0.1281
     79 H37         5.7300  -12.3025   -0.9016 H         1 <0>         0.1315
     80 H38         5.4654  -14.7685   -0.9312 H         1 <0>         0.1118
     81 H39         5.0259  -14.0596   -2.5045 H         1 <0>         0.0874
     82 H40         7.6979  -15.3551   -1.7914 H         1 <0>         0.0815
     83 H41         6.4426  -16.0439   -2.8511 H         1 <0>         0.0941
     84 H42         8.2784  -14.9431   -4.1496 H         1 <0>         0.1119
     85 H43         6.7004  -14.1636   -4.4203 H         1 <0>         0.0875
     86 H44         8.4758  -12.4729   -4.0432 H         1 <0>         0.1296
     87 H45         8.8452  -13.2125   -2.4675 H         1 <0>         0.1278
     88 H46         6.2451  -12.0927   -3.2373 H         1 <0>         0.4222
@<TRIPOS>BOND
     1    1    2 1
     2    1   45 1
     3    1   46 1
     4    1   47 1
     5    2    3 1
     6    2    4 1
     7    2   13 1
     8    4    5 1
     9    4   48 1
    10    4   49 1
    11    5    6 1
    12    5   50 1
    13    5   51 1
    14    6   11 ar
    15    6    7 ar
    16    7    8 ar
    17    7   52 1
    18    8    9 ar
    19    8   53 1
    20    9   10 ar
    21    9   12 1
    22   10   11 ar
    23   10   54 1
    24   11   55 1
    25   12   56 1
    26   13   14 am
    27   13   57 1
    28   14   15 2
    29   14   16 1
    30   16   17 1
    31   16   58 1
    32   16   59 1
    33   17   26 2
    34   17   18 1
    35   18   23 ar
    36   18   19 ar
    37   19   20 ar
    38   19   60 1
    39   20   21 ar
    40   20   33 1
    41   21   22 ar
    42   21   61 1
    43   22   23 ar
    44   22   62 1
    45   23   24 1
    46   24   25 1
    47   24   26 1
    48   26   27 1
    49   27   32 ar
    50   27   28 ar
    51   28   29 ar
    52   28   63 1
    53   29   30 ar
    54   29   64 1
    55   30   31 ar
    56   30   65 1
    57   31   32 ar
    58   31   66 1
    59   32   67 1
    60   33   34 1
    61   34   35 1
    62   34   68 1
    63   34   69 1
    64   35   36 1
    65   35   70 1
    66   35   71 1
    67   36   37 1
    68   36   72 1
    69   36   73 1
    70   37   38 1
    71   37   74 1
    72   37   75 1
    73   38   39 1
    74   38   76 1
    75   38   77 1
    76   39   44 1
    77   39   40 1
    78   39   88 1
    79   40   41 1
    80   40   78 1
    81   40   79 1
    82   41   42 1
    83   41   80 1
    84   41   81 1
    85   42   43 1
    86   42   82 1
    87   42   83 1
    88   43   44 1
    89   43   84 1
    90   43   85 1
    91   44   86 1
    92   44   87 1
@<TRIPOS>MOLECULE
CHEMBL241304
   82    86     0     0     0
SMALL
USER_CHARGES

@<TRIPOS>ATOM
      1 C1         -0.0187    1.5258    0.0104 C.3       1 <0>        -0.1657
      2 C2          0.0021   -0.0041    0.0020 C.3       1 <0>         0.1425
      3 H1          0.5293   -0.3651    0.8851 H         1 <0>         0.0890
      4 C3          0.7182   -0.4975   -1.2568 C.3       1 <0>        -0.1225
      5 C4          0.8493   -2.0210   -1.2049 C.3       1 <0>        -0.0775
      6 C5          1.5546   -2.5070   -2.4448 C.ar      1 <0>        -0.0935
      7 C6          0.8231   -2.8339   -3.5717 C.ar      1 <0>        -0.1008
      8 C7          1.4673   -3.2801   -4.7094 C.ar      1 <0>        -0.1427
      9 C8          2.8494   -3.3996   -4.7207 C.ar      1 <0>         0.1019
     10 C9          3.5812   -3.0705   -3.5889 C.ar      1 <0>        -0.1423
     11 C10         2.9326   -2.6199   -2.4555 C.ar      1 <0>        -0.1006
     12 O1          3.4855   -3.8387   -5.8386 O.3       1 <0>        -0.5006
     13 N1         -1.3723   -0.5112    0.0124 N.am      1 <0>        -0.7285
     14 C11        -2.0286   -0.6552    1.1807 C.2       1 <0>         0.5131
     15 O2         -1.4814   -0.3650    2.2235 O.2       1 <0>        -0.5247
     16 C12        -3.4424   -1.1768    1.1914 C.3       1 <0>        -0.0716
     17 C13        -3.9431   -1.2421    2.6114 C.2       1 <0>        -0.1245
     18 C14        -3.8204   -2.3765    3.5261 C.ar      1 <0>        -0.1131
     19 C15        -3.2596   -3.6525    3.4140 C.ar      1 <0>        -0.0252
     20 C16        -3.3048   -4.5102    4.4752 C.ar      1 <0>        -0.2239
     21 C17        -3.9063   -4.1237    5.6708 C.ar      1 <0>         0.1388
     22 C18        -4.4669   -2.8669    5.8017 C.ar      1 <0>        -0.1620
     23 C19        -4.4299   -1.9794    4.7316 C.ar      1 <0>         0.1437
     24 N2         -4.8895   -0.6926    4.5572 N.pl3     1 <0>        -0.5838
     25 H2         -5.3521   -0.1694    5.2303 H         1 <0>         0.4188
     26 C20        -4.5876   -0.2583    3.2857 C.2       1 <0>         0.1385
     27 C21        -4.9191    1.0749    2.7385 C.ar      1 <0>        -0.0435
     28 C22        -3.9675    1.7896    2.0097 C.ar      1 <0>        -0.0937
     29 C23        -4.2831    3.0330    1.5019 C.ar      1 <0>        -0.1167
     30 C24        -5.5398    3.5715    1.7140 C.ar      1 <0>        -0.1064
     31 C25        -6.4877    2.8681    2.4357 C.ar      1 <0>        -0.1170
     32 C26        -6.1867    1.6213    2.9439 C.ar      1 <0>        -0.1052
     33 O3         -3.9427   -4.9901    6.7176 O.3       1 <0>        -0.3142
     34 C27        -3.3466   -6.2735    6.5186 C.3       1 <0>         0.0651
     35 C28        -3.4838   -7.1033    7.7966 C.3       1 <0>        -0.1510
     36 C29        -2.8456   -8.4774    7.5836 C.3       1 <0>        -0.0061
     37 N3         -2.9773   -9.2741    8.8107 N.4       1 <0>        -0.3814
     38 C30        -2.2068   -8.6415    9.8880 C.3       1 <0>        -0.0140
     39 C31        -2.4058   -9.4224   11.1889 C.3       1 <0>        -0.1459
     40 C32        -1.9239  -10.8626   10.9922 C.3       1 <0>        -0.1399
     41 C33        -2.6820  -11.4883    9.8179 C.3       1 <0>        -0.1464
     42 C34        -2.4728  -10.6309    8.5679 C.3       1 <0>        -0.0066
     43 H3          1.0039    1.9031    0.0027 H         1 <0>         0.0668
     44 H4         -0.5459    1.8868   -0.8726 H         1 <0>         0.0584
     45 H5         -0.5289    1.8773    0.9072 H         1 <0>         0.0607
     46 H6          0.1430   -0.2121   -2.1375 H         1 <0>         0.0721
     47 H7          1.7103   -0.0491   -1.3098 H         1 <0>         0.0820
     48 H8          1.4245   -2.3064   -0.3242 H         1 <0>         0.0731
     49 H9         -0.1428   -2.4694   -1.1520 H         1 <0>         0.0729
     50 H10        -0.2528   -2.7407   -3.5623 H         1 <0>         0.1253
     51 H11         0.8955   -3.5360   -5.5891 H         1 <0>         0.1288
     52 H12         4.6572   -3.1627   -3.5953 H         1 <0>         0.1289
     53 H13         3.5021   -2.3594   -1.5756 H         1 <0>         0.1259
     54 H14         3.7392   -3.1334   -6.4495 H         1 <0>         0.3926
     55 H15        -1.8100   -0.7432   -0.8215 H         1 <0>         0.3998
     56 H16        -4.0803   -0.5097    0.6116 H         1 <0>         0.1026
     57 H17        -3.4651   -2.1740    0.7520 H         1 <0>         0.1018
     58 H18        -2.7919   -3.9589    2.4900 H         1 <0>         0.1257
     59 H19        -2.8716   -5.4955    4.3870 H         1 <0>         0.1251
     60 H20        -4.9319   -2.5751    6.7317 H         1 <0>         0.1294
     61 H21        -2.9860    1.3705    1.8437 H         1 <0>         0.1307
     62 H22        -3.5475    3.5873    0.9380 H         1 <0>         0.1276
     63 H23        -5.7817    4.5454    1.3148 H         1 <0>         0.1273
     64 H24        -7.4667    3.2942    2.5981 H         1 <0>         0.1281
     65 H25        -6.9290    1.0712    3.5033 H         1 <0>         0.1219
     66 H26        -3.8498   -6.7845    5.6978 H         1 <0>         0.0726
     67 H27        -2.2909   -6.1502    6.2770 H         1 <0>         0.0722
     68 H28        -2.9806   -6.5922    8.6174 H         1 <0>         0.0985
     69 H29        -4.5396   -7.2266    8.0382 H         1 <0>         0.0986
     70 H30        -3.3488   -8.9884    6.7628 H         1 <0>         0.1353
     71 H31        -1.7898   -8.3541    7.3420 H         1 <0>         0.1335
     72 H32        -1.1491   -8.6390    9.6245 H         1 <0>         0.1295
     73 H33        -2.5488   -7.6156   10.0247 H         1 <0>         0.1324
     74 H34        -1.8315   -8.9522   11.9871 H         1 <0>         0.1123
     75 H35        -3.4632   -9.4253   11.4535 H         1 <0>         0.0878
     76 H36        -0.8552  -10.8633   10.7779 H         1 <0>         0.0819
     77 H37        -2.1155  -11.4380   11.8979 H         1 <0>         0.0944
     78 H38        -2.3052  -12.4948    9.6362 H         1 <0>         0.1127
     79 H39        -3.7452  -11.5341   10.0541 H         1 <0>         0.0878
     80 H40        -3.0111  -11.0737    7.7299 H         1 <0>         0.1308
     81 H41        -1.4094  -10.5859    8.3325 H         1 <0>         0.1290
     82 H42        -3.9493   -9.3205    9.0776 H         1 <0>         0.4235
@<TRIPOS>BOND
     1    1    2 1
     2    1   43 1
     3    1   44 1
     4    1   45 1
     5    2    3 1
     6    2    4 1
     7    2   13 1
     8    4    5 1
     9    4   46 1
    10    4   47 1
    11    5    6 1
    12    5   48 1
    13    5   49 1
    14    6   11 ar
    15    6    7 ar
    16    7    8 ar
    17    7   50 1
    18    8    9 ar
    19    8   51 1
    20    9   10 ar
    21    9   12 1
    22   10   11 ar
    23   10   52 1
    24   11   53 1
    25   12   54 1
    26   13   14 am
    27   13   55 1
    28   14   15 2
    29   14   16 1
    30   16   17 1
    31   16   56 1
    32   16   57 1
    33   17   26 2
    34   17   18 1
    35   18   23 ar
    36   18   19 ar
    37   19   20 ar
    38   19   58 1
    39   20   21 ar
    40   20   59 1
    41   21   22 ar
    42   21   33 1
    43   22   23 ar
    44   22   60 1
    45   23   24 1
    46   24   25 1
    47   24   26 1
    48   26   27 1
    49   27   32 ar
    50   27   28 ar
    51   28   29 ar
    52   28   61 1
    53   29   30 ar
    54   29   62 1
    55   30   31 ar
    56   30   63 1
    57   31   32 ar
    58   31   64 1
    59   32   65 1
    60   33   34 1
    61   34   35 1
    62   34   66 1
    63   34   67 1
    64   35   36 1
    65   35   68 1
    66   35   69 1
    67   36   37 1
    68   36   70 1
    69   36   71 1
    70   37   42 1
    71   37   38 1
    72   37   82 1
    73   38   39 1
    74   38   72 1
    75   38   73 1
    76   39   40 1
    77   39   74 1
    78   39   75 1
    79   40   41 1
    80   40   76 1
    81   40   77 1
    82   41   42 1
    83   41   78 1
    84   41   79 1
    85   42   80 1
    86   42   81 1
@<TRIPOS>MOLECULE
CHEMBL241303
   79    83     0     0     0
SMALL
USER_CHARGES

@<TRIPOS>ATOM
      1 C1         -0.5723    0.8910    0.1960 C.3       1 <0>        -0.1657
      2 C2         -0.4427   -0.6335    0.1942 C.3       1 <0>         0.1423
      3 H1          0.0683   -0.9536   -0.7139 H         1 <0>         0.0893
      4 C3         -1.8359   -1.2639    0.2446 C.3       1 <0>        -0.1228
      5 C4         -1.7129   -2.7836    0.1172 C.3       1 <0>        -0.0772
      6 C5         -3.0852   -3.4045    0.1668 C.ar      1 <0>        -0.0942
      7 C6         -3.6307   -3.7767    1.3816 C.ar      1 <0>        -0.1009
      8 C7         -4.8883   -4.3465    1.4298 C.ar      1 <0>        -0.1429
      9 C8         -5.6041   -4.5447    0.2580 C.ar      1 <0>         0.1024
     10 C9         -5.0547   -4.1700   -0.9595 C.ar      1 <0>        -0.1421
     11 C10        -3.7989   -3.5958   -1.0018 C.ar      1 <0>        -0.1003
     12 O1         -6.8412   -5.1055    0.3027 O.3       1 <0>        -0.5004
     13 N1          0.3287   -1.0595    1.3645 N.am      1 <0>        -0.7277
     14 C11         1.6755   -1.0741    1.3151 C.2       1 <0>         0.5128
     15 O2          2.2488   -0.7346    0.3017 O.2       1 <0>        -0.5253
     16 C12         2.4690   -1.5122    2.5190 C.3       1 <0>        -0.0726
     17 C13         3.9410   -1.4375    2.2048 C.2       1 <0>        -0.1245
     18 C14         4.7635   -2.5019    1.6309 C.ar      1 <0>        -0.1076
     19 C15         4.5001   -3.8125    1.2208 C.ar      1 <0>        -0.0226
     20 C16         5.5075   -4.5804    0.7116 C.ar      1 <0>        -0.2231
     21 C17         6.7978   -4.0679    0.5971 C.ar      1 <0>         0.1307
     22 C18         7.0788   -2.7749    0.9974 C.ar      1 <0>        -0.1561
     23 C19         6.0653   -1.9776    1.5181 C.ar      1 <0>         0.1414
     24 N2          6.0318   -0.6845    1.9915 N.pl3     1 <0>        -0.5829
     25 H2          6.7931   -0.0847    2.0305 H         1 <0>         0.4195
     26 C20         4.7533   -0.3690    2.3949 C.2       1 <0>         0.1433
     27 C21         4.3323    0.9339    2.9534 C.ar      1 <0>        -0.0468
     28 C22         3.1503    1.5342    2.5172 C.ar      1 <0>        -0.0926
     29 C23         2.7631    2.7499    3.0422 C.ar      1 <0>        -0.1161
     30 C24         3.5438    3.3738    3.9991 C.ar      1 <0>        -0.1045
     31 C25         4.7167    2.7840    4.4358 C.ar      1 <0>        -0.1170
     32 C26         5.1122    1.5658    3.9230 C.ar      1 <0>        -0.1047
     33 O3          7.7892   -4.8461    0.0879 O.3       1 <0>        -0.3292
     34 C27         7.4344   -6.1729   -0.3069 C.3       1 <0>         0.0280
     35 C28         8.6710   -6.8909   -0.8512 C.3       1 <0>        -0.0013
     36 N3          9.6681   -7.0283    0.2189 N.4       1 <0>        -0.3839
     37 C29        10.9107   -7.5747   -0.3395 C.3       1 <0>        -0.0071
     38 C30        11.9786   -7.6441    0.7542 C.3       1 <0>        -0.1467
     39 C31        11.4842   -8.5495    1.8860 C.3       1 <0>        -0.1389
     40 C32        10.1499   -8.0117    2.4109 C.3       1 <0>        -0.1453
     41 C33         9.1498   -7.9287    1.2558 C.3       1 <0>        -0.0132
     42 H3          0.4202    1.3401    0.1601 H         1 <0>         0.0604
     43 H4         -1.1462    1.2079   -0.6747 H         1 <0>         0.0674
     44 H5         -1.0833    1.2110    1.1041 H         1 <0>         0.0586
     45 H6         -2.3126   -1.0162    1.1930 H         1 <0>         0.0722
     46 H7         -2.4392   -0.8780   -0.5771 H         1 <0>         0.0825
     47 H8         -1.2362   -3.0313   -0.8312 H         1 <0>         0.0732
     48 H9         -1.1096   -3.1695    0.9388 H         1 <0>         0.0724
     49 H10        -3.0731   -3.6222    2.2935 H         1 <0>         0.1250
     50 H11        -5.3137   -4.6377    2.3788 H         1 <0>         0.1288
     51 H12        -5.6099   -4.3233   -1.8731 H         1 <0>         0.1292
     52 H13        -3.3725   -3.2999   -1.9490 H         1 <0>         0.1261
     53 H14        -7.5597   -4.4657    0.4002 H         1 <0>         0.3928
     54 H15        -0.1298   -1.3310    2.1750 H         1 <0>         0.4000
     55 H16         2.2435   -0.8574    3.3607 H         1 <0>         0.1035
     56 H17         2.2038   -2.5379    2.7753 H         1 <0>         0.1023
     57 H18         3.5022   -4.2164    1.3069 H         1 <0>         0.1282
     58 H19         5.3026   -5.5926    0.3955 H         1 <0>         0.1269
     59 H20         8.0819   -2.3853    0.9061 H         1 <0>         0.1296
     60 H21         2.5402    1.0484    1.7701 H         1 <0>         0.1311
     61 H22         1.8488    3.2157    2.7053 H         1 <0>         0.1285
     62 H23         3.2364    4.3255    4.4067 H         1 <0>         0.1281
     63 H24         5.3218    3.2763    5.1827 H         1 <0>         0.1286
     64 H25         6.0257    1.1042    4.2679 H         1 <0>         0.1215
     65 H26         7.0480   -6.7173    0.5547 H         1 <0>         0.0863
     66 H27         6.6692   -6.1290   -1.0819 H         1 <0>         0.1095
     67 H28         8.3875   -7.8793   -1.2128 H         1 <0>         0.1484
     68 H29         9.0957   -6.3120   -1.6713 H         1 <0>         0.1420
     69 H30        10.7243   -8.5756   -0.7288 H         1 <0>         0.1289
     70 H31        11.2596   -6.9309   -1.1470 H         1 <0>         0.1307
     71 H32        12.8999   -8.0517    0.3381 H         1 <0>         0.1125
     72 H33        12.1659   -6.6435    1.1440 H         1 <0>         0.0876
     73 H34        11.3456   -9.5625    1.5082 H         1 <0>         0.0819
     74 H35        12.2169   -8.5573    2.6930 H         1 <0>         0.0941
     75 H36         9.7641   -8.6820    3.1790 H         1 <0>         0.1120
     76 H37        10.2993   -7.0188    2.8351 H         1 <0>         0.0877
     77 H38         8.1986   -7.5462    1.6261 H         1 <0>         0.1285
     78 H39         9.0010   -8.9220    0.8326 H         1 <0>         0.1299
     79 H40         9.8531   -6.1225    0.6231 H         1 <0>         0.4295
@<TRIPOS>BOND
     1    1    2 1
     2    1   42 1
     3    1   43 1
     4    1   44 1
     5    2    3 1
     6    2    4 1
     7    2   13 1
     8    4    5 1
     9    4   45 1
    10    4   46 1
    11    5    6 1
    12    5   47 1
    13    5   48 1
    14    6   11 ar
    15    6    7 ar
    16    7    8 ar
    17    7   49 1
    18    8    9 ar
    19    8   50 1
    20    9   10 ar
    21    9   12 1
    22   10   11 ar
    23   10   51 1
    24   11   52 1
    25   12   53 1
    26   13   14 am
    27   13   54 1
    28   14   15 2
    29   14   16 1
    30   16   17 1
    31   16   55 1
    32   16   56 1
    33   17   26 2
    34   17   18 1
    35   18   23 ar
    36   18   19 ar
    37   19   20 ar
    38   19   57 1
    39   20   21 ar
    40   20   58 1
    41   21   22 ar
    42   21   33 1
    43   22   23 ar
    44   22   59 1
    45   23   24 1
    46   24   25 1
    47   24   26 1
    48   26   27 1
    49   27   32 ar
    50   27   28 ar
    51   28   29 ar
    52   28   60 1
    53   29   30 ar
    54   29   61 1
    55   30   31 ar
    56   30   62 1
    57   31   32 ar
    58   31   63 1
    59   32   64 1
    60   33   34 1
    61   34   35 1
    62   34   65 1
    63   34   66 1
    64   35   36 1
    65   35   67 1
    66   35   68 1
    67   36   41 1
    68   36   37 1
    69   36   79 1
    70   37   38 1
    71   37   69 1
    72   37   70 1
    73   38   39 1
    74   38   71 1
    75   38   72 1
    76   39   40 1
    77   39   73 1
    78   39   74 1
    79   40   41 1
    80   40   75 1
    81   40   76 1
    82   41   77 1
    83   41   78 1
@<TRIPOS>MOLECULE
CHEMBL241484
   85    89     0     0     0
SMALL
USER_CHARGES

@<TRIPOS>ATOM
      1 C1         -0.0187    1.5258    0.0104 C.3       1 <0>        -0.1656
      2 C2          0.0021   -0.0041    0.0020 C.3       1 <0>         0.1424
      3 H1          0.5123   -0.3556   -0.8948 H         1 <0>         0.0890
      4 C3         -1.4333   -0.5336    0.0129 C.3       1 <0>        -0.1223
      5 C4         -1.4157   -2.0577   -0.1212 C.3       1 <0>        -0.0778
      6 C5         -2.8295   -2.5793   -0.1105 C.ar      1 <0>        -0.0931
      7 C6         -3.4314   -2.9172    1.0875 C.ar      1 <0>        -0.1008
      8 C7         -4.7271   -3.3960    1.1000 C.ar      1 <0>        -0.1428
      9 C8         -5.4247   -3.5373   -0.0909 C.ar      1 <0>         0.1016
     10 C9         -4.8186   -3.1971   -1.2916 C.ar      1 <0>        -0.1424
     11 C10        -3.5245   -2.7138   -1.2982 C.ar      1 <0>        -0.1006
     12 O1         -6.6993   -4.0085   -0.0813 O.3       1 <0>        -0.5006
     13 N1          0.7106   -0.4894    1.1889 N.am      1 <0>        -0.7289
     14 C11         2.0538   -0.5998    1.1737 C.2       1 <0>         0.5130
     15 O2          2.6758   -0.2974    0.1774 O.2       1 <0>        -0.5240
     16 C12         2.7826   -1.0990    2.3946 C.3       1 <0>        -0.0710
     17 C13         4.2638   -1.1281    2.1185 C.2       1 <0>        -0.1245
     18 C14         5.0231   -2.2458    1.5589 C.ar      1 <0>        -0.1156
     19 C15         4.6777   -3.5323    1.1337 C.ar      1 <0>        -0.0263
     20 C16         5.6407   -4.3678    0.6453 C.ar      1 <0>        -0.2239
     21 C17         6.9668   -3.9482    0.5671 C.ar      1 <0>         0.1426
     22 C18         7.3286   -2.6804    0.9828 C.ar      1 <0>        -0.1656
     23 C19         6.3613   -1.8152    1.4826 C.ar      1 <0>         0.1447
     24 N2          6.4078   -0.5252    1.9634 N.pl3     1 <0>        -0.5843
     25 H2          7.2086    0.0186    2.0256 H         1 <0>         0.4183
     26 C20         5.1451   -0.1211    2.3361 C.2       1 <0>         0.1361
     27 C21         4.8035    1.2059    2.8920 C.ar      1 <0>        -0.0420
     28 C22         3.6790    1.8910    2.4298 C.ar      1 <0>        -0.0941
     29 C23         3.3659    3.1288    2.9526 C.ar      1 <0>        -0.1168
     30 C24         4.1640    3.6909    3.9331 C.ar      1 <0>        -0.1073
     31 C25         5.2802    3.0169    4.3957 C.ar      1 <0>        -0.1171
     32 C26         5.6011    1.7760    3.8853 C.ar      1 <0>        -0.1056
     33 O3          7.9130   -4.7928    0.0784 O.3       1 <0>        -0.3151
     34 C27         7.4750   -6.0890   -0.3339 C.3       1 <0>         0.0610
     35 C28         8.6710   -6.8909   -0.8512 C.3       1 <0>        -0.1180
     36 C29         8.2021   -8.2787   -1.2926 C.3       1 <0>        -0.1463
     37 C30         9.3981   -9.0806   -1.8099 C.3       1 <0>        -0.0086
     38 N3          8.9478  -10.4131   -2.2337 N.4       1 <0>        -0.3831
     39 C31         8.4484  -11.1527   -1.0684 C.3       1 <0>        -0.0127
     40 C32         7.9034  -12.5105   -1.5166 C.3       1 <0>        -0.1461
     41 C33         9.0252  -13.3086   -2.1873 C.3       1 <0>        -0.1397
     42 C34         9.5887  -12.4950   -3.3559 C.3       1 <0>        -0.1466
     43 C35        10.0713  -11.1378   -2.8396 C.3       1 <0>        -0.0067
     44 H3          1.0039    1.9031    0.0027 H         1 <0>         0.0608
     45 H4         -0.5459    1.8868   -0.8726 H         1 <0>         0.0666
     46 H5         -0.5289    1.8773    0.9072 H         1 <0>         0.0583
     47 H6         -1.9156   -0.2570    0.9504 H         1 <0>         0.0720
     48 H7         -1.9862   -0.1019   -0.8214 H         1 <0>         0.0818
     49 H8         -0.9334   -2.3344   -1.0587 H         1 <0>         0.0732
     50 H9         -0.8628   -2.4894    0.7131 H         1 <0>         0.0731
     51 H10        -2.8879   -2.8071    2.0143 H         1 <0>         0.1254
     52 H11        -5.1966   -3.6605    2.0359 H         1 <0>         0.1287
     53 H12        -5.3596   -3.3061   -2.2200 H         1 <0>         0.1288
     54 H13        -3.0538   -2.4447   -2.2322 H         1 <0>         0.1260
     55 H14        -7.3727   -3.3195    0.0019 H         1 <0>         0.3925
     56 H15         0.2131   -0.7312    1.9857 H         1 <0>         0.3996
     57 H16         2.5826   -0.4337    3.2345 H         1 <0>         0.1022
     58 H17         2.4385   -2.1044    2.6374 H         1 <0>         0.1014
     59 H18         3.6517   -3.8644    1.1917 H         1 <0>         0.1244
     60 H19         5.3725   -5.3613    0.3176 H         1 <0>         0.1246
     61 H20         8.3590   -2.3629    0.9195 H         1 <0>         0.1291
     62 H21         3.0554    1.4534    1.6643 H         1 <0>         0.1306
     63 H22         2.4961    3.6602    2.5956 H         1 <0>         0.1272
     64 H23         3.9148    4.6603    4.3388 H         1 <0>         0.1269
     65 H24         5.8993    3.4613    5.1609 H         1 <0>         0.1278
     66 H25         6.4702    1.2489    4.2504 H         1 <0>         0.1220
     67 H26         7.0287   -6.6085    0.5140 H         1 <0>         0.0649
     68 H27         6.7352   -5.9870   -1.1279 H         1 <0>         0.0652
     69 H28         9.1174   -6.3714   -1.6991 H         1 <0>         0.0864
     70 H29         9.4108   -6.9928   -0.0572 H         1 <0>         0.0859
     71 H30         7.7557   -8.7981   -0.4446 H         1 <0>         0.0906
     72 H31         7.4623   -8.1767   -2.0866 H         1 <0>         0.0909
     73 H32         9.8444   -8.5611   -2.6578 H         1 <0>         0.1334
     74 H33        10.1379   -9.1825   -1.0159 H         1 <0>         0.1316
     75 H34         9.2619  -11.3045   -0.3590 H         1 <0>         0.1287
     76 H35         7.6523  -10.5820   -0.5902 H         1 <0>         0.1311
     77 H36         7.5347  -13.0589   -0.6497 H         1 <0>         0.1118
     78 H37         7.0895  -12.3599   -2.2259 H         1 <0>         0.0874
     79 H38         9.8167  -13.5035   -1.4637 H         1 <0>         0.0817
     80 H39         8.6285  -14.2534   -2.5588 H         1 <0>         0.0942
     81 H40        10.4247  -13.0322   -3.8038 H         1 <0>         0.1122
     82 H41         8.8099  -12.3440   -4.1034 H         1 <0>         0.0875
     83 H42        10.4733  -10.5560   -3.6690 H         1 <0>         0.1302
     84 H43        10.8502  -11.2898   -2.0924 H         1 <0>         0.1283
     85 H44         8.2064  -10.3167   -2.9113 H         1 <0>         0.4223
@<TRIPOS>BOND
     1    1    2 1
     2    1   44 1
     3    1   45 1
     4    1   46 1
     5    2    3 1
     6    2    4 1
     7    2   13 1
     8    4    5 1
     9    4   47 1
    10    4   48 1
    11    5    6 1
    12    5   49 1
    13    5   50 1
    14    6   11 ar
    15    6    7 ar
    16    7    8 ar
    17    7   51 1
    18    8    9 ar
    19    8   52 1
    20    9   10 ar
    21    9   12 1
    22   10   11 ar
    23   10   53 1
    24   11   54 1
    25   12   55 1
    26   13   14 am
    27   13   56 1
    28   14   15 2
    29   14   16 1
    30   16   17 1
    31   16   57 1
    32   16   58 1
    33   17   26 2
    34   17   18 1
    35   18   23 ar
    36   18   19 ar
    37   19   20 ar
    38   19   59 1
    39   20   21 ar
    40   20   60 1
    41   21   22 ar
    42   21   33 1
    43   22   23 ar
    44   22   61 1
    45   23   24 1
    46   24   25 1
    47   24   26 1
    48   26   27 1
    49   27   32 ar
    50   27   28 ar
    51   28   29 ar
    52   28   62 1
    53   29   30 ar
    54   29   63 1
    55   30   31 ar
    56   30   64 1
    57   31   32 ar
    58   31   65 1
    59   32   66 1
    60   33   34 1
    61   34   35 1
    62   34   67 1
    63   34   68 1
    64   35   36 1
    65   35   69 1
    66   35   70 1
    67   36   37 1
    68   36   71 1
    69   36   72 1
    70   37   38 1
    71   37   73 1
    72   37   74 1
    73   38   43 1
    74   38   39 1
    75   38   85 1
    76   39   40 1
    77   39   75 1
    78   39   76 1
    79   40   41 1
    80   40   77 1
    81   40   78 1
    82   41   42 1
    83   41   79 1
    84   41   80 1
    85   42   43 1
    86   42   81 1
    87   42   82 1
    88   43   83 1
    89   43   84 1
@<TRIPOS>MOLECULE
CHEMBL58486
   53    55     0     0     0
SMALL
USER_CHARGES

@<TRIPOS>ATOM
      1 C1         -0.0184    1.5028    0.0103 C.3       1 <0>        -0.1187
      2 C2          0.0021   -0.0041    0.0020 C.ar      1 <0>        -0.1009
      3 C3          0.0057   -0.6863   -1.1964 C.ar      1 <0>        -0.0535
      4 C4          0.0246   -2.0801   -1.2032 C.ar      1 <0>        -0.1121
      5 C5          0.0398   -2.7803    0.0026 C.ar      1 <0>        -0.0856
      6 C6          0.0361   -2.0927    1.1974 C.ar      1 <0>        -0.1329
      7 C7          0.0230   -0.7039    1.2009 C.ar      1 <0>         0.1543
      8 O1          0.0249   -0.0290    2.3798 O.3       1 <0>        -0.4880
      9 C8          0.0281   -2.8168   -2.4901 C.ar      1 <0>         0.2476
     10 C9          0.0181   -2.1095   -3.6869 C.ar      1 <0>        -0.1758
     11 C10         0.0220   -2.8148   -4.8927 C.ar      1 <0>         0.1339
     12 C11         0.0357   -4.2098   -4.8451 C.ar      1 <0>        -0.2191
     13 C12         0.0451   -4.8451   -3.6096 C.ar      1 <0>         0.4572
     14 N1          0.0461   -4.1448   -2.4865 N.ar      1 <0>        -0.5199
     15 N2          0.0583   -6.2342   -3.5522 N.pl3     1 <0>        -0.5869
     16 C13         0.0682   -6.9136   -2.2544 C.3       1 <0>         0.0500
     17 C14         0.0623   -7.0184   -4.7897 C.3       1 <0>         0.1112
     18 C15         1.5062   -7.2778   -5.2243 C.3       1 <0>        -0.1173
     19 C16         2.2014   -8.1589   -4.1845 C.3       1 <0>        -0.1573
     20 C17         1.5111   -7.9878   -6.5796 C.3       1 <0>        -0.1514
     21 C18         0.0112   -2.0985   -6.1924 C.ar      1 <0>        -0.1016
     22 C19         0.0095   -2.8166   -7.3864 C.ar      1 <0>        -0.0784
     23 C20        -0.0005   -2.1454   -8.5924 C.ar      1 <0>        -0.1196
     24 C21        -0.0083   -0.7624   -8.6170 C.ar      1 <0>        -0.0775
     25 C22        -0.0061   -0.0446   -7.4346 C.ar      1 <0>        -0.1191
     26 C23        -0.0029   -0.7056   -6.2230 C.ar      1 <0>        -0.0783
     27 H1          1.0042    1.8801    0.0026 H         1 <0>         0.0838
     28 H2         -0.5455    1.8639   -0.8728 H         1 <0>         0.0751
     29 H3         -0.5286    1.8543    0.9071 H         1 <0>         0.0778
     30 H4         -0.0065   -0.1413   -2.1287 H         1 <0>         0.1438
     31 H5          0.0541   -3.8602    0.0004 H         1 <0>         0.1230
     32 H6          0.0478   -2.6344    2.1316 H         1 <0>         0.1473
     33 H7         -0.8578    0.1543    2.7295 H         1 <0>         0.4046
     34 H8          0.0072   -1.0295   -3.6845 H         1 <0>         0.1772
     35 H9          0.0387   -4.7880   -5.7573 H         1 <0>         0.1779
     36 H10        -0.9570   -7.0918   -1.9297 H         1 <0>         0.0849
     37 H11         0.5908   -7.8657   -2.3467 H         1 <0>         0.1122
     38 H12         0.5781   -6.2889   -1.5211 H         1 <0>         0.0695
     39 H13        -0.4421   -7.9694   -4.6188 H         1 <0>         0.1075
     40 H14        -0.4588   -6.4660   -5.5716 H         1 <0>         0.0961
     41 H15         2.0361   -6.3290   -5.3093 H         1 <0>         0.0772
     42 H16         1.6715   -9.1076   -4.0995 H         1 <0>         0.0634
     43 H17         3.2300   -8.3437   -4.4941 H         1 <0>         0.0668
     44 H18         2.1979   -7.6530   -3.2190 H         1 <0>         0.0530
     45 H19         1.0158   -7.3601   -7.3204 H         1 <0>         0.0610
     46 H20         2.5397   -8.1726   -6.8893 H         1 <0>         0.0690
     47 H21         0.9812   -8.9365   -6.4946 H         1 <0>         0.0640
     48 H22         0.0163   -3.8965   -7.3684 H         1 <0>         0.1297
     49 H23        -0.0018   -2.7010   -9.5185 H         1 <0>         0.1370
     50 H24        -0.0157   -0.2412   -9.5628 H         1 <0>         0.1363
     51 H25        -0.0115    1.0351   -7.4596 H         1 <0>         0.1376
     52 H26        -0.0061   -0.1442   -5.3004 H         1 <0>         0.1318
     53 H27         0.0568   -4.6142   -1.6377 H         1 <0>         0.4324
@<TRIPOS>BOND
     1    1    2 1
     2    1   27 1
     3    1   28 1
     4    1   29 1
     5    2    7 ar
     6    2    3 ar
     7    3    4 ar
     8    3   30 1
     9    4    5 ar
    10    4    9 1
    11    5    6 ar
    12    5   31 1
    13    6    7 ar
    14    6   32 1
    15    7    8 1
    16    8   33 1
    17    9   14 ar
    18    9   10 ar
    19   10   11 ar
    20   10   34 1
    21   11   12 ar
    22   11   21 1
    23   12   13 ar
    24   12   35 1
    25   13   14 ar
    26   13   15 1
    27   14   53 1
    28   15   16 1
    29   15   17 1
    30   16   36 1
    31   16   37 1
    32   16   38 1
    33   17   18 1
    34   17   39 1
    35   17   40 1
    36   18   19 1
    37   18   20 1
    38   18   41 1
    39   19   42 1
    40   19   43 1
    41   19   44 1
    42   20   45 1
    43   20   46 1
    44   20   47 1
    45   21   26 ar
    46   21   22 ar
    47   22   23 ar
    48   22   48 1
    49   23   24 ar
    50   23   49 1
    51   24   25 ar
    52   24   50 1
    53   25   26 ar
    54   25   51 1
    55   26   52 1
@<TRIPOS>MOLECULE
CHEMBL393982
   79    83     0     0     0
SMALL
USER_CHARGES

@<TRIPOS>ATOM
      1 C1         -0.0187    1.5258    0.0104 C.3       1 <0>        -0.1656
      2 C2          0.0021   -0.0041    0.0020 C.3       1 <0>         0.1424
      3 H1          0.5123   -0.3556   -0.8948 H         1 <0>         0.0891
      4 C3         -1.4333   -0.5336    0.0129 C.3       1 <0>        -0.1225
      5 C4         -1.4157   -2.0577   -0.1212 C.3       1 <0>        -0.0776
      6 C5         -2.8295   -2.5793   -0.1105 C.ar      1 <0>        -0.0935
      7 C6         -3.4314   -2.9172    1.0875 C.ar      1 <0>        -0.1008
      8 C7         -4.7271   -3.3960    1.1000 C.ar      1 <0>        -0.1428
      9 C8         -5.4247   -3.5373   -0.0909 C.ar      1 <0>         0.1019
     10 C9         -4.8186   -3.1971   -1.2916 C.ar      1 <0>        -0.1423
     11 C10        -3.5245   -2.7138   -1.2982 C.ar      1 <0>        -0.1006
     12 O1         -6.6993   -4.0085   -0.0813 O.3       1 <0>        -0.5005
     13 N1          0.7106   -0.4894    1.1889 N.am      1 <0>        -0.7286
     14 C11         2.0538   -0.5998    1.1737 C.2       1 <0>         0.5130
     15 O2          2.6758   -0.2974    0.1774 O.2       1 <0>        -0.5246
     16 C12         2.7826   -1.0990    2.3946 C.3       1 <0>        -0.0715
     17 C13         4.2638   -1.1281    2.1185 C.2       1 <0>        -0.1245
     18 C14         5.0231   -2.2458    1.5589 C.ar      1 <0>        -0.1131
     19 C15         4.6777   -3.5323    1.1337 C.ar      1 <0>        -0.0252
     20 C16         5.6407   -4.3678    0.6453 C.ar      1 <0>        -0.2240
     21 C17         6.9668   -3.9482    0.5671 C.ar      1 <0>         0.1388
     22 C18         7.3286   -2.6804    0.9828 C.ar      1 <0>        -0.1621
     23 C19         6.3613   -1.8152    1.4826 C.ar      1 <0>         0.1438
     24 N2          6.4078   -0.5252    1.9634 N.pl3     1 <0>        -0.5838
     25 H2          7.2086    0.0186    2.0256 H         1 <0>         0.4188
     26 C20         5.1451   -0.1211    2.3361 C.2       1 <0>         0.1385
     27 C21         4.8035    1.2059    2.8920 C.ar      1 <0>        -0.0436
     28 C22         3.6790    1.8910    2.4298 C.ar      1 <0>        -0.0937
     29 C23         3.3659    3.1288    2.9526 C.ar      1 <0>        -0.1166
     30 C24         4.1640    3.6909    3.9331 C.ar      1 <0>        -0.1064
     31 C25         5.2802    3.0169    4.3957 C.ar      1 <0>        -0.1170
     32 C26         5.6011    1.7760    3.8853 C.ar      1 <0>        -0.1053
     33 O3          7.9130   -4.7928    0.0784 O.3       1 <0>        -0.3142
     34 C27         7.4750   -6.0890   -0.3339 C.3       1 <0>         0.0650
     35 C28         8.6710   -6.8909   -0.8512 C.3       1 <0>        -0.1496
     36 C29         8.2021   -8.2787   -1.2926 C.3       1 <0>        -0.0015
     37 N3          9.3504   -9.0486   -1.7892 N.4       1 <0>        -0.3936
     38 C30        10.2705   -9.3754   -0.6700 C.3       1 <0>        -0.0088
     39 C31        11.0591  -10.5973   -1.2045 C.3       1 <0>        -0.1458
     40 C32         9.9863  -11.3829   -1.9931 C.3       1 <0>        -0.1456
     41 C33         8.8972  -10.3480   -2.3312 C.3       1 <0>        -0.0082
     42 H3          1.0039    1.9031    0.0027 H         1 <0>         0.0607
     43 H4         -0.5459    1.8868   -0.8726 H         1 <0>         0.0668
     44 H5         -0.5289    1.8773    0.9072 H         1 <0>         0.0584
     45 H6         -1.9156   -0.2570    0.9504 H         1 <0>         0.0721
     46 H7         -1.9862   -0.1019   -0.8214 H         1 <0>         0.0820
     47 H8         -0.9334   -2.3344   -1.0587 H         1 <0>         0.0731
     48 H9         -0.8628   -2.4894    0.7131 H         1 <0>         0.0729
     49 H10        -2.8879   -2.8071    2.0143 H         1 <0>         0.1253
     50 H11        -5.1966   -3.6605    2.0359 H         1 <0>         0.1288
     51 H12        -5.3596   -3.3061   -2.2200 H         1 <0>         0.1289
     52 H13        -3.0538   -2.4447   -2.2322 H         1 <0>         0.1260
     53 H14        -7.3727   -3.3195    0.0019 H         1 <0>         0.3926
     54 H15         0.2131   -0.7312    1.9857 H         1 <0>         0.3998
     55 H16         2.5826   -0.4337    3.2345 H         1 <0>         0.1027
     56 H17         2.4385   -2.1044    2.6374 H         1 <0>         0.1018
     57 H18         3.6517   -3.8644    1.1917 H         1 <0>         0.1257
     58 H19         5.3725   -5.3613    0.3176 H         1 <0>         0.1250
     59 H20         8.3590   -2.3629    0.9195 H         1 <0>         0.1294
     60 H21         3.0554    1.4534    1.6643 H         1 <0>         0.1307
     61 H22         2.4961    3.6602    2.5956 H         1 <0>         0.1276
     62 H23         3.9148    4.6603    4.3388 H         1 <0>         0.1273
     63 H24         5.8993    3.4613    5.1609 H         1 <0>         0.1281
     64 H25         6.4702    1.2489    4.2504 H         1 <0>         0.1219
     65 H26         7.0287   -6.6085    0.5140 H         1 <0>         0.0720
     66 H27         6.7352   -5.9870   -1.1279 H         1 <0>         0.0723
     67 H28         9.1174   -6.3714   -1.6991 H         1 <0>         0.0980
     68 H29         9.4108   -6.9928   -0.0572 H         1 <0>         0.0975
     69 H30         7.7557   -8.7981   -0.4446 H         1 <0>         0.1331
     70 H31         7.4623   -8.1767   -2.0866 H         1 <0>         0.1339
     71 H32        10.9431   -8.5415   -0.4689 H         1 <0>         0.1362
     72 H33         9.7083   -9.6420    0.2250 H         1 <0>         0.1346
     73 H34        11.8655  -10.2773   -1.8643 H         1 <0>         0.0983
     74 H35        11.4478  -11.1959   -0.3808 H         1 <0>         0.1169
     75 H36        10.4143  -11.7941   -2.9074 H         1 <0>         0.1055
     76 H37         9.5719  -12.1805   -1.3765 H         1 <0>         0.1041
     77 H38         7.9543  -10.6358   -1.8662 H         1 <0>         0.1313
     78 H39         8.7749  -10.2772   -3.4120 H         1 <0>         0.1329
     79 H40         9.8386   -8.5260   -2.5010 H         1 <0>         0.4282
@<TRIPOS>BOND
     1    1    2 1
     2    1   42 1
     3    1   43 1
     4    1   44 1
     5    2    3 1
     6    2    4 1
     7    2   13 1
     8    4    5 1
     9    4   45 1
    10    4   46 1
    11    5    6 1
    12    5   47 1
    13    5   48 1
    14    6   11 ar
    15    6    7 ar
    16    7    8 ar
    17    7   49 1
    18    8    9 ar
    19    8   50 1
    20    9   10 ar
    21    9   12 1
    22   10   11 ar
    23   10   51 1
    24   11   52 1
    25   12   53 1
    26   13   14 am
    27   13   54 1
    28   14   15 2
    29   14   16 1
    30   16   17 1
    31   16   55 1
    32   16   56 1
    33   17   26 2
    34   17   18 1
    35   18   23 ar
    36   18   19 ar
    37   19   20 ar
    38   19   57 1
    39   20   21 ar
    40   20   58 1
    41   21   22 ar
    42   21   33 1
    43   22   23 ar
    44   22   59 1
    45   23   24 1
    46   24   25 1
    47   24   26 1
    48   26   27 1
    49   27   32 ar
    50   27   28 ar
    51   28   29 ar
    52   28   60 1
    53   29   30 ar
    54   29   61 1
    55   30   31 ar
    56   30   62 1
    57   31   32 ar
    58   31   63 1
    59   32   64 1
    60   33   34 1
    61   34   35 1
    62   34   65 1
    63   34   66 1
    64   35   36 1
    65   35   67 1
    66   35   68 1
    67   36   37 1
    68   36   69 1
    69   36   70 1
    70   37   41 1
    71   37   38 1
    72   37   79 1
    73   38   39 1
    74   38   71 1
    75   38   72 1
    76   39   40 1
    77   39   73 1
    78   39   74 1
    79   40   41 1
    80   40   75 1
    81   40   76 1
    82   41   77 1
    83   41   78 1
@<TRIPOS>MOLECULE
CHEMBL241485
   76    80     0     0     0
SMALL
USER_CHARGES

@<TRIPOS>ATOM
      1 C1         -0.0187    1.5258    0.0104 C.3       1 <0>        -0.1657
      2 C2          0.0021   -0.0041    0.0020 C.3       1 <0>         0.1423
      3 H1          0.5293   -0.3651    0.8851 H         1 <0>         0.0894
      4 C3          0.7182   -0.4975   -1.2568 C.3       1 <0>        -0.1228
      5 C4          0.8493   -2.0210   -1.2049 C.3       1 <0>        -0.0772
      6 C5          1.5546   -2.5070   -2.4448 C.ar      1 <0>        -0.0942
      7 C6          0.8231   -2.8339   -3.5717 C.ar      1 <0>        -0.1010
      8 C7          1.4673   -3.2801   -4.7094 C.ar      1 <0>        -0.1429
      9 C8          2.8494   -3.3996   -4.7207 C.ar      1 <0>         0.1024
     10 C9          3.5812   -3.0705   -3.5889 C.ar      1 <0>        -0.1421
     11 C10         2.9326   -2.6199   -2.4555 C.ar      1 <0>        -0.1004
     12 O1          3.4855   -3.8387   -5.8386 O.3       1 <0>        -0.5004
     13 N1         -1.3723   -0.5112    0.0124 N.am      1 <0>        -0.7276
     14 C11        -2.0286   -0.6552    1.1807 C.2       1 <0>         0.5128
     15 O2         -1.4814   -0.3650    2.2235 O.2       1 <0>        -0.5253
     16 C12        -3.4424   -1.1768    1.1914 C.3       1 <0>        -0.0726
     17 C13        -3.9431   -1.2421    2.6114 C.2       1 <0>        -0.1246
     18 C14        -3.8204   -2.3765    3.5261 C.ar      1 <0>        -0.1076
     19 C15        -3.2596   -3.6525    3.4140 C.ar      1 <0>        -0.0227
     20 C16        -3.3048   -4.5102    4.4752 C.ar      1 <0>        -0.2229
     21 C17        -3.9063   -4.1237    5.6708 C.ar      1 <0>         0.1305
     22 C18        -4.4669   -2.8669    5.8017 C.ar      1 <0>        -0.1561
     23 C19        -4.4299   -1.9794    4.7316 C.ar      1 <0>         0.1412
     24 N2         -4.8895   -0.6926    4.5572 N.pl3     1 <0>        -0.5828
     25 H2         -5.3521   -0.1694    5.2303 H         1 <0>         0.4196
     26 C20        -4.5876   -0.2583    3.2857 C.2       1 <0>         0.1433
     27 C21        -4.9191    1.0749    2.7385 C.ar      1 <0>        -0.0468
     28 C22        -3.9675    1.7896    2.0097 C.ar      1 <0>        -0.0925
     29 C23        -4.2831    3.0330    1.5019 C.ar      1 <0>        -0.1161
     30 C24        -5.5398    3.5715    1.7140 C.ar      1 <0>        -0.1045
     31 C25        -6.4877    2.8681    2.4357 C.ar      1 <0>        -0.1170
     32 C26        -6.1867    1.6213    2.9439 C.ar      1 <0>        -0.1047
     33 O3         -3.9427   -4.9901    6.7176 O.3       1 <0>        -0.3291
     34 C27        -3.3466   -6.2735    6.5186 C.3       1 <0>         0.0294
     35 C28        -3.4838   -7.1033    7.7966 C.3       1 <0>         0.0033
     36 N3         -4.9047   -7.3708    8.0565 N.4       1 <0>        -0.3955
     37 C29        -5.4481   -8.2952    7.0287 C.3       1 <0>        -0.0103
     38 C30        -6.6929   -8.9039    7.7220 C.3       1 <0>        -0.1447
     39 C31        -6.2293   -9.0619    9.1883 C.3       1 <0>        -0.1450
     40 C32        -5.0638   -8.0686    9.3509 C.3       1 <0>        -0.0087
     41 H3          1.0039    1.9031    0.0027 H         1 <0>         0.0674
     42 H4         -0.5459    1.8868   -0.8726 H         1 <0>         0.0586
     43 H5         -0.5289    1.8773    0.9072 H         1 <0>         0.0604
     44 H6          0.1430   -0.2121   -2.1375 H         1 <0>         0.0722
     45 H7          1.7103   -0.0491   -1.3098 H         1 <0>         0.0825
     46 H8          1.4245   -2.3064   -0.3242 H         1 <0>         0.0732
     47 H9         -0.1428   -2.4694   -1.1520 H         1 <0>         0.0724
     48 H10        -0.2528   -2.7407   -3.5623 H         1 <0>         0.1250
     49 H11         0.8955   -3.5360   -5.5891 H         1 <0>         0.1288
     50 H12         4.6572   -3.1627   -3.5953 H         1 <0>         0.1292
     51 H13         3.5021   -2.3594   -1.5756 H         1 <0>         0.1261
     52 H14         3.7392   -3.1334   -6.4495 H         1 <0>         0.3928
     53 H15        -1.8100   -0.7432   -0.8215 H         1 <0>         0.4000
     54 H16        -4.0803   -0.5097    0.6116 H         1 <0>         0.1035
     55 H17        -3.4651   -2.1740    0.7520 H         1 <0>         0.1023
     56 H18        -2.7919   -3.9589    2.4900 H         1 <0>         0.1282
     57 H19        -2.8716   -5.4955    4.3870 H         1 <0>         0.1268
     58 H20        -4.9319   -2.5751    6.7317 H         1 <0>         0.1296
     59 H21        -2.9860    1.3705    1.8437 H         1 <0>         0.1310
     60 H22        -3.5475    3.5873    0.9380 H         1 <0>         0.1285
     61 H23        -5.7817    4.5454    1.3148 H         1 <0>         0.1281
     62 H24        -7.4667    3.2942    2.5981 H         1 <0>         0.1286
     63 H25        -6.9290    1.0712    3.5033 H         1 <0>         0.1215
     64 H26        -3.8498   -6.7845    5.6978 H         1 <0>         0.0854
     65 H27        -2.2909   -6.1502    6.2770 H         1 <0>         0.1085
     66 H28        -2.9525   -8.0473    7.6757 H         1 <0>         0.1481
     67 H29        -3.0586   -6.5519    8.6353 H         1 <0>         0.1408
     68 H30        -5.7369   -7.7467    6.1321 H         1 <0>         0.1340
     69 H31        -4.7229   -9.0726    6.7885 H         1 <0>         0.1348
     70 H32        -7.5419   -8.2234    7.6571 H         1 <0>         0.0980
     71 H33        -6.9401   -9.8732    7.2890 H         1 <0>         0.1170
     72 H34        -7.0403   -8.8085    9.8709 H         1 <0>         0.1051
     73 H35        -5.8861  -10.0806    9.3688 H         1 <0>         0.1042
     74 H36        -4.1487   -8.6070    9.5974 H         1 <0>         0.1313
     75 H37        -5.2966   -7.3481   10.1350 H         1 <0>         0.1324
     76 H38        -5.4267   -6.5074    8.0603 H         1 <0>         0.4337
@<TRIPOS>BOND
     1    1    2 1
     2    1   41 1
     3    1   42 1
     4    1   43 1
     5    2    3 1
     6    2    4 1
     7    2   13 1
     8    4    5 1
     9    4   44 1
    10    4   45 1
    11    5    6 1
    12    5   46 1
    13    5   47 1
    14    6   11 ar
    15    6    7 ar
    16    7    8 ar
    17    7   48 1
    18    8    9 ar
    19    8   49 1
    20    9   10 ar
    21    9   12 1
    22   10   11 ar
    23   10   50 1
    24   11   51 1
    25   12   52 1
    26   13   14 am
    27   13   53 1
    28   14   15 2
    29   14   16 1
    30   16   17 1
    31   16   54 1
    32   16   55 1
    33   17   26 2
    34   17   18 1
    35   18   23 ar
    36   18   19 ar
    37   19   20 ar
    38   19   56 1
    39   20   21 ar
    40   20   57 1
    41   21   22 ar
    42   21   33 1
    43   22   23 ar
    44   22   58 1
    45   23   24 1
    46   24   25 1
    47   24   26 1
    48   26   27 1
    49   27   32 ar
    50   27   28 ar
    51   28   29 ar
    52   28   59 1
    53   29   30 ar
    54   29   60 1
    55   30   31 ar
    56   30   61 1
    57   31   32 ar
    58   31   62 1
    59   32   63 1
    60   33   34 1
    61   34   35 1
    62   34   64 1
    63   34   65 1
    64   35   36 1
    65   35   66 1
    66   35   67 1
    67   36   40 1
    68   36   37 1
    69   36   76 1
    70   37   38 1
    71   37   68 1
    72   37   69 1
    73   38   39 1
    74   38   70 1
    75   38   71 1
    76   39   40 1
    77   39   72 1
    78   39   73 1
    79   40   74 1
    80   40   75 1
@<TRIPOS>MOLECULE
CHEMBL125362
   63    67     0     0     0
SMALL
USER_CHARGES

@<TRIPOS>ATOM
      1 C1          6.2563    5.9864    0.1809 C.ar      1 <0>        -0.1019
      2 C2          5.4099    5.3653    1.0811 C.ar      1 <0>        -0.1143
      3 C3          5.5866    4.0297    1.3912 C.ar      1 <0>        -0.0577
      4 C4          6.6101    3.3122    0.8025 C.ar      1 <0>        -0.1229
      5 C5          7.4604    3.9328   -0.1007 C.ar      1 <0>         0.1153
      6 C6          7.2807    5.2733   -0.4106 C.ar      1 <0>        -0.1334
      7 O1          8.4678    3.2292   -0.6811 O.3       1 <0>        -0.4950
      8 C7          4.6625    3.3561    2.3726 C.3       1 <0>        -0.0378
      9 H1          5.1109    2.4253    2.7200 H         1 <0>         0.1247
     10 C8          3.3186    3.0615    1.6979 C.3       1 <0>        -0.0387
     11 H2          3.4895    2.6310    0.7112 H         1 <0>         0.1465
     12 S1          2.4117    1.8842    2.7275 S.3       1 <0>        -0.0676
     13 C9          2.3431    2.6082    4.3297 C.ar      1 <0>        -0.1158
     14 C10         1.3895    2.0743    5.2059 C.ar      1 <0>        -0.0655
     15 C11         1.2487    2.5494    6.4897 C.ar      1 <0>        -0.1239
     16 C12         2.0685    3.5776    6.9324 C.ar      1 <0>         0.1347
     17 C13         3.0080    4.1141    6.0755 C.ar      1 <0>        -0.1147
     18 C14         3.1515    3.6421    4.7641 C.ar      1 <0>        -0.0778
     19 S2          4.3651    4.4513    3.7799 S.3       1 <0>        -0.0642
     20 O2          1.9469    4.0533    8.2006 O.3       1 <0>        -0.4931
     21 C15         2.5265    4.3367    1.5652 C.ar      1 <0>        -0.1020
     22 C16         2.6749    5.1275    0.4406 C.ar      1 <0>        -0.0372
     23 C17         1.9506    6.2972    0.3164 C.ar      1 <0>        -0.2014
     24 C18         1.0731    6.6785    1.3209 C.ar      1 <0>         0.1505
     25 C19         0.9253    5.8831    2.4487 C.ar      1 <0>        -0.1138
     26 C20         1.6488    4.7109    2.5655 C.ar      1 <0>        -0.0405
     27 Br1        -0.2691    6.3991    3.8209 Br        1 <0>        -0.0260
     28 O3          0.3597    7.8292    1.2011 O.3       1 <0>        -0.3151
     29 C21         0.5630    8.5979    0.0138 C.3       1 <0>         0.0230
     30 C22        -0.3188    9.8475    0.0581 C.3       1 <0>        -0.0010
     31 N1          0.1266   10.7226    1.1507 N.4       1 <0>        -0.3854
     32 C23        -0.7934   11.8600    1.2706 C.3       1 <0>        -0.0068
     33 C24        -0.3809   12.7316    2.4587 C.3       1 <0>        -0.1472
     34 C25         1.0440   13.2468    2.2364 C.3       1 <0>        -0.1384
     35 C26         1.9828   12.0532    2.0386 C.3       1 <0>        -0.1458
     36 C27         1.4827   11.2067    0.8660 C.3       1 <0>        -0.0135
     37 H3          6.1134    7.0287   -0.0631 H         1 <0>         0.1285
     38 H4          4.6097    5.9247    1.5429 H         1 <0>         0.1319
     39 H5          6.7482    2.2690    1.0457 H         1 <0>         0.1352
     40 H6          7.9412    5.7587   -1.1138 H         1 <0>         0.1335
     41 H7          8.2202    2.8001   -1.5116 H         1 <0>         0.3959
     42 H8          0.7510    1.2721    4.8665 H         1 <0>         0.1395
     43 H9          0.5051    2.1250    7.1480 H         1 <0>         0.1439
     44 H10         3.6457    4.9135    6.4230 H         1 <0>         0.1376
     45 H11         2.5043    3.5982    8.8465 H         1 <0>         0.3990
     46 H12         3.3581    4.8305   -0.3414 H         1 <0>         0.1386
     47 H13         2.0676    6.9146   -0.5619 H         1 <0>         0.1385
     48 H14         1.5314    4.0893    3.4409 H         1 <0>         0.1587
     49 H15         1.6099    8.8941   -0.0525 H         1 <0>         0.0889
     50 H16         0.2993    7.9978   -0.8571 H         1 <0>         0.1122
     51 H17        -0.2409   10.3808   -0.8893 H         1 <0>         0.1504
     52 H18        -1.3552    9.5550    0.2263 H         1 <0>         0.1441
     53 H19        -0.7588   12.4526    0.3564 H         1 <0>         0.1295
     54 H20        -1.8076   11.4917    1.4255 H         1 <0>         0.1313
     55 H21        -1.0641   13.5765    2.5449 H         1 <0>         0.1132
     56 H22        -0.4155   12.1399    3.3735 H         1 <0>         0.0883
     57 H23         1.0683   13.8805    1.3499 H         1 <0>         0.0820
     58 H24         1.3635   13.8216    3.1057 H         1 <0>         0.0947
     59 H25         2.9891   12.4131    1.8245 H         1 <0>         0.1123
     60 H26         1.9973   11.4474    2.9447 H         1 <0>         0.0884
     61 H27         2.1490   10.3561    0.7223 H         1 <0>         0.1270
     62 H28         1.4688   11.8133   -0.0395 H         1 <0>         0.1306
     63 H29         0.1306   10.2033    2.0158 H         1 <0>         0.4300
@<TRIPOS>BOND
     1    1    6 ar
     2    1    2 ar
     3    1   37 1
     4    2    3 ar
     5    2   38 1
     6    3    4 ar
     7    3    8 1
     8    4    5 ar
     9    4   39 1
    10    5    6 ar
    11    5    7 1
    12    6   40 1
    13    7   41 1
    14    8    9 1
    15    8   19 1
    16    8   10 1
    17   10   11 1
    18   10   12 1
    19   10   21 1
    20   12   13 1
    21   13   18 ar
    22   13   14 ar
    23   14   15 ar
    24   14   42 1
    25   15   16 ar
    26   15   43 1
    27   16   17 ar
    28   16   20 1
    29   17   18 ar
    30   17   44 1
    31   18   19 1
    32   20   45 1
    33   21   26 ar
    34   21   22 ar
    35   22   23 ar
    36   22   46 1
    37   23   24 ar
    38   23   47 1
    39   24   25 ar
    40   24   28 1
    41   25   26 ar
    42   25   27 1
    43   26   48 1
    44   28   29 1
    45   29   30 1
    46   29   49 1
    47   29   50 1
    48   30   31 1
    49   30   51 1
    50   30   52 1
    51   31   36 1
    52   31   32 1
    53   31   63 1
    54   32   33 1
    55   32   53 1
    56   32   54 1
    57   33   34 1
    58   33   55 1
    59   33   56 1
    60   34   35 1
    61   34   57 1
    62   34   58 1
    63   35   36 1
    64   35   59 1
    65   35   60 1
    66   36   61 1
    67   36   62 1
@<TRIPOS>MOLECULE
CHEMBL182979
   61    66     0     0     0
SMALL
USER_CHARGES

@<TRIPOS>ATOM
      1 C1          1.1631   -0.6117   -0.4390 C.ar      1 <0>        -0.0894
      2 C2          2.3518    0.0921   -0.4484 C.ar      1 <0>        -0.1411
      3 C3          2.3800    1.4096   -0.0147 C.ar      1 <0>         0.1130
      4 C4          1.2137    2.0170    0.4273 C.ar      1 <0>        -0.1435
      5 C5          0.0275    1.3089    0.4346 C.ar      1 <0>        -0.0798
      6 C6          0.0021   -0.0041    0.0020 C.ar      1 <0>        -0.0869
      7 C7         -1.2934   -0.7740    0.0107 C.3       1 <0>        -0.0618
      8 H1         -2.1334   -0.0869    0.1120 H         1 <0>         0.1395
      9 C8         -1.2969   -1.7821    1.1721 C.3       1 <0>         0.1561
     10 H2         -2.1779   -2.4197    1.0986 H         1 <0>         0.0935
     11 O1         -0.1255   -2.5802    1.0967 O.3       1 <0>        -0.3032
     12 C9          0.1551   -3.3416    0.0132 C.ar      1 <0>         0.1264
     13 C10         0.9986   -4.4351    0.1946 C.ar      1 <0>        -0.1163
     14 C11         1.3394   -5.2447   -0.8692 C.ar      1 <0>        -0.1070
     15 C12         0.8443   -4.9772   -2.1372 C.ar      1 <0>         0.0919
     16 C13        -0.0005   -3.8960   -2.3286 C.ar      1 <0>        -0.0900
     17 C14        -0.3494   -3.0850   -1.2568 C.ar      1 <0>        -0.1474
     18 S1         -1.4568   -1.7323   -1.5285 S.3       1 <0>        -0.0922
     19 O2          1.1866   -5.7716   -3.1864 O.3       1 <0>        -0.4926
     20 C15        -1.3198   -1.0400    2.4835 C.ar      1 <0>        -0.1278
     21 C16        -0.1522   -0.5024    2.9927 C.ar      1 <0>        -0.0363
     22 C17        -0.1704    0.1779    4.1949 C.ar      1 <0>        -0.1538
     23 C18        -1.3617    0.3218    4.8912 C.ar      1 <0>         0.1455
     24 C19        -2.5320   -0.2182    4.3779 C.ar      1 <0>        -0.2105
     25 C20        -2.5094   -0.8931    3.1727 C.ar      1 <0>        -0.0585
     26 O3         -1.3822    0.9902    6.0743 O.3       1 <0>        -0.3132
     27 C21        -2.6441    1.0995    6.7359 C.3       1 <0>         0.0589
     28 C22        -2.4698    1.8785    8.0411 C.3       1 <0>        -0.1116
     29 C23        -3.8208    1.9956    8.7495 C.3       1 <0>        -0.0880
     30 C24        -4.7514    2.9794    7.9977 C.3       1 <0>        -0.0944
     31 C25        -5.7465    3.4573    9.0753 C.3       1 <0>        -0.1690
     32 C26        -5.3634    4.6697    9.9263 C.3       1 <0>        -0.1526
     33 C27        -5.0512    3.2605   10.4339 C.3       1 <0>        -0.1684
     34 C28        -3.6579    2.6699   10.1344 C.3       1 <0>        -0.0899
     35 O4          3.5482    2.1039   -0.0225 O.3       1 <0>        -0.4990
     36 H3          1.1398   -1.6359   -0.7807 H         1 <0>         0.1304
     37 H4          3.2585   -0.3831   -0.7926 H         1 <0>         0.1291
     38 H5          1.2331    3.0424    0.7657 H         1 <0>         0.1308
     39 H6         -0.8807    1.7813    0.7787 H         1 <0>         0.1263
     40 H7          1.3899   -4.6512    1.1778 H         1 <0>         0.1413
     41 H8          1.9942   -6.0894   -0.7144 H         1 <0>         0.1406
     42 H9         -0.3883   -3.6831   -3.3139 H         1 <0>         0.1385
     43 H10         0.5878   -6.5179   -3.3264 H         1 <0>         0.3917
     44 H11         0.7750   -0.6147    2.4504 H         1 <0>         0.1321
     45 H12         0.7420    0.5970    4.5927 H         1 <0>         0.1328
     46 H13        -3.4607   -0.1075    4.9180 H         1 <0>         0.1315
     47 H14        -3.4210   -1.3098    2.7705 H         1 <0>         0.1283
     48 H15        -3.3483    1.6246    6.0906 H         1 <0>         0.0643
     49 H16        -3.0265    0.1028    6.9560 H         1 <0>         0.0632
     50 H17        -1.7655    1.3535    8.6864 H         1 <0>         0.0770
     51 H18        -2.0873    2.8753    7.8210 H         1 <0>         0.0763
     52 H19        -4.2891    1.0164    8.8493 H         1 <0>         0.0817
     53 H20        -4.1801    3.8210    7.6059 H         1 <0>         0.0706
     54 H21        -5.2780    2.4668    7.1927 H         1 <0>         0.0691
     55 H22        -6.7976    3.2054    8.9348 H         1 <0>         0.1091
     56 H23        -4.5257    5.2784    9.5858 H         1 <0>         0.0923
     57 H24        -6.1699    5.2138   10.4179 H         1 <0>         0.0979
     58 H25        -5.5925    2.8722   11.2966 H         1 <0>         0.1097
     59 H26        -3.3865    1.9313   10.8887 H         1 <0>         0.0720
     60 H27        -2.9100    3.4614   10.0877 H         1 <0>         0.0709
     61 H28         3.7178    2.5792   -0.8474 H         1 <0>         0.3922
@<TRIPOS>BOND
     1    1    6 ar
     2    1    2 ar
     3    1   36 1
     4    2    3 ar
     5    2   37 1
     6    3    4 ar
     7    3   35 1
     8    4    5 ar
     9    4   38 1
    10    5    6 ar
    11    5   39 1
    12    6    7 1
    13    7    8 1
    14    7   18 1
    15    7    9 1
    16    9   10 1
    17    9   11 1
    18    9   20 1
    19   11   12 1
    20   12   17 ar
    21   12   13 ar
    22   13   14 ar
    23   13   40 1
    24   14   15 ar
    25   14   41 1
    26   15   16 ar
    27   15   19 1
    28   16   17 ar
    29   16   42 1
    30   17   18 1
    31   19   43 1
    32   20   25 ar
    33   20   21 ar
    34   21   22 ar
    35   21   44 1
    36   22   23 ar
    37   22   45 1
    38   23   24 ar
    39   23   26 1
    40   24   25 ar
    41   24   46 1
    42   25   47 1
    43   26   27 1
    44   27   28 1
    45   27   48 1
    46   27   49 1
    47   28   29 1
    48   28   50 1
    49   28   51 1
    50   29   34 1
    51   29   30 1
    52   29   52 1
    53   30   31 1
    54   30   53 1
    55   30   54 1
    56   31   33 1
    57   31   32 1
    58   31   55 1
    59   32   33 1
    60   32   56 1
    61   32   57 1
    62   33   34 1
    63   33   58 1
    64   34   59 1
    65   34   60 1
    66   35   61 1
@<TRIPOS>MOLECULE
CHEMBL14955
   64    68     0     0     0
SMALL
USER_CHARGES

@<TRIPOS>ATOM
      1 C1         -0.1882    1.7739    0.1486 C.ar      1 <0>        -0.0778
      2 C2          1.0309    2.4232    0.1272 C.ar      1 <0>        -0.1438
      3 C3          2.2048    1.6894    0.0367 C.ar      1 <0>         0.1192
      4 C4          2.1511    0.3049   -0.0321 C.ar      1 <0>        -0.1436
      5 C5          0.9294   -0.3397   -0.0104 C.ar      1 <0>        -0.0810
      6 C6         -0.2391    0.3939    0.0798 C.ar      1 <0>        -0.0932
      7 C7         -1.5704   -0.3119    0.1038 C.3       1 <0>        -0.0008
      8 H1         -2.3931    0.4004    0.1653 H         1 <0>         0.1321
      9 C8         -1.6373   -1.3498    1.2465 C.3       1 <0>        -0.0889
     10 H2         -0.6239   -1.6481    1.5152 H         1 <0>         0.1240
     11 C9         -2.4209   -2.5755    0.8453 C.ar      1 <0>        -0.1228
     12 C10        -3.0115   -3.5045    1.7067 C.ar      1 <0>        -0.0734
     13 C11        -3.6907   -4.5970    1.2199 C.ar      1 <0>        -0.1445
     14 C12        -3.8088   -4.8084   -0.1472 C.ar      1 <0>         0.1398
     15 C13        -3.2370   -3.8949   -1.0201 C.ar      1 <0>        -0.1100
     16 C14        -2.5632   -2.7960   -0.5229 C.ar      1 <0>        -0.0476
     17 S1         -1.7611   -1.4341   -1.3425 S.3       1 <0>        -0.1137
     18 O1         -4.4741   -5.8939   -0.6226 O.3       1 <0>        -0.4911
     19 C15        -2.2971   -0.7186    2.4454 C.2       1 <0>         0.4118
     20 O2         -3.1272    0.1524    2.2923 O.2       1 <0>        -0.4304
     21 C16        -1.9349   -1.1580    3.7991 C.ar      1 <0>        -0.1902
     22 C17        -0.9726   -2.1594    3.9787 C.ar      1 <0>        -0.0318
     23 C18        -0.6377   -2.5658    5.2448 C.ar      1 <0>        -0.1506
     24 C19        -1.2523   -1.9856    6.3493 C.ar      1 <0>         0.1496
     25 C20        -2.2090   -0.9911    6.1764 C.ar      1 <0>        -0.2142
     26 C21        -2.5465   -0.5731    4.9148 C.ar      1 <0>        -0.0144
     27 O3         -0.9177   -2.3916    7.5998 O.3       1 <0>        -0.3233
     28 C22        -1.5871   -1.7542    8.6896 C.3       1 <0>         0.0227
     29 C23        -1.0824   -2.3390   10.0103 C.3       1 <0>        -0.0011
     30 N1          0.3465   -2.0359   10.1658 N.4       1 <0>        -0.3845
     31 C24         0.8656   -2.7273   11.3520 C.3       1 <0>        -0.0072
     32 C25         2.3709   -2.4806   11.4729 C.3       1 <0>        -0.1467
     33 C26         2.6272   -0.9765   11.6039 C.3       1 <0>        -0.1393
     34 C27         2.0163   -0.2576   10.3976 C.3       1 <0>        -0.1453
     35 C28         0.5242   -0.5867   10.3165 C.3       1 <0>        -0.0136
     36 O4          3.4054    2.3259    0.0150 O.3       1 <0>        -0.4963
     37 H3         -1.1021    2.3444    0.2235 H         1 <0>         0.1320
     38 H4          1.0701    3.5012    0.1805 H         1 <0>         0.1348
     39 H5          3.0635   -0.2686   -0.1030 H         1 <0>         0.1344
     40 H6          0.8871   -1.4176   -0.0639 H         1 <0>         0.1330
     41 H7         -2.9327   -3.3620    2.7743 H         1 <0>         0.1248
     42 H8         -4.1371   -5.2986    1.9090 H         1 <0>         0.1367
     43 H9         -3.3179   -4.0426   -2.0869 H         1 <0>         0.1412
     44 H10        -5.4184   -5.7443   -0.7669 H         1 <0>         0.3992
     45 H11        -0.4953   -2.6110    3.1216 H         1 <0>         0.1449
     46 H12         0.1044   -3.3379    5.3845 H         1 <0>         0.1428
     47 H13        -2.6838   -0.5443    7.0374 H         1 <0>         0.1362
     48 H14        -3.2860    0.2026    4.7817 H         1 <0>         0.1440
     49 H15        -1.3835   -0.6837    8.6650 H         1 <0>         0.0897
     50 H16        -2.6607   -1.9220    8.6047 H         1 <0>         0.1130
     51 H17        -1.6391   -1.9001   10.8383 H         1 <0>         0.1507
     52 H18        -1.2265   -3.4195   10.0079 H         1 <0>         0.1438
     53 H19         0.3631   -2.3483   12.2419 H         1 <0>         0.1297
     54 H20         0.6796   -3.7973   11.2587 H         1 <0>         0.1315
     55 H21         2.7541   -2.9933   12.3552 H         1 <0>         0.1136
     56 H22         2.8745   -2.8595   10.5835 H         1 <0>         0.0881
     57 H23         2.1669   -0.6067   12.5201 H         1 <0>         0.0824
     58 H24         3.7009   -0.7909   11.6335 H         1 <0>         0.0951
     59 H25         2.1460    0.8187   10.5112 H         1 <0>         0.1126
     60 H26         2.5125   -0.5904    9.4859 H         1 <0>         0.0878
     61 H27         0.0861   -0.0762    9.4588 H         1 <0>         0.1269
     62 H28         0.0289   -0.2533   11.2285 H         1 <0>         0.1310
     63 H29         3.7926    2.4650    0.8901 H         1 <0>         0.3930
     64 H30         0.8472   -2.3519    9.3488 H         1 <0>         0.4290
@<TRIPOS>BOND
     1    1    6 ar
     2    1    2 ar
     3    1   37 1
     4    2    3 ar
     5    2   38 1
     6    3    4 ar
     7    3   36 1
     8    4    5 ar
     9    4   39 1
    10    5    6 ar
    11    5   40 1
    12    6    7 1
    13    7    8 1
    14    7   17 1
    15    7    9 1
    16    9   10 1
    17    9   11 1
    18    9   19 1
    19   11   16 ar
    20   11   12 ar
    21   12   13 ar
    22   12   41 1
    23   13   14 ar
    24   13   42 1
    25   14   15 ar
    26   14   18 1
    27   15   16 ar
    28   15   43 1
    29   16   17 1
    30   18   44 1
    31   19   20 2
    32   19   21 1
    33   21   26 ar
    34   21   22 ar
    35   22   23 ar
    36   22   45 1
    37   23   24 ar
    38   23   46 1
    39   24   25 ar
    40   24   27 1
    41   25   26 ar
    42   25   47 1
    43   26   48 1
    44   27   28 1
    45   28   29 1
    46   28   49 1
    47   28   50 1
    48   29   30 1
    49   29   51 1
    50   29   52 1
    51   30   35 1
    52   30   31 1
    53   30   64 1
    54   31   32 1
    55   31   53 1
    56   31   54 1
    57   32   33 1
    58   32   55 1
    59   32   56 1
    60   33   34 1
    61   33   57 1
    62   33   58 1
    63   34   35 1
    64   34   59 1
    65   34   60 1
    66   35   61 1
    67   35   62 1
    68   36   63 1
@<TRIPOS>MOLECULE
CHEMBL397344
   50    54     0     0     0
SMALL
USER_CHARGES

@<TRIPOS>ATOM
      1 C1         -0.0187    1.5258    0.0104 C.3       1 <0>        -0.1333
      2 C2          0.0021   -0.0041    0.0020 C.3       1 <0>        -0.0549
      3 C3         -1.4126   -0.5495    0.0535 C.3       1 <0>        -0.1032
      4 C4         -2.0900    0.0497    1.2983 C.3       1 <0>        -0.1154
      5 C5         -1.3111   -0.2840    2.5651 C.3       1 <0>        -0.0665
      6 H1         -1.3077   -1.3689    2.6700 H         1 <0>         0.0664
      7 C6          0.1483    0.1732    2.4718 C.3       1 <0>        -0.0690
      8 H2          0.1871    1.2556    2.3498 H         1 <0>         0.0857
      9 C7          0.7493   -0.5421    1.2528 C.3       1 <0>        -0.0836
     10 H3          0.6121   -1.6208    1.3290 H         1 <0>         0.0752
     11 C8          2.2101   -0.2257    0.9500 C.3       1 <0>        -0.1132
     12 C9          2.3260   -0.2649   -0.5943 C.3       1 <0>        -0.1568
     13 C10         0.8919   -0.5179   -1.1348 C.3       1 <0>         0.1081
     14 H4          0.7256   -1.5817   -1.3041 H         1 <0>         0.0605
     15 O1          0.6638    0.2280   -2.3322 O.3       1 <0>        -0.5589
     16 C11         0.8854   -0.2290    3.7562 C.3       1 <0>        -0.0840
     17 C12         0.2557    0.5638    4.8861 C.2       1 <0>        -0.1286
     18 C13        -1.0161    0.7998    4.8111 C.2       1 <0>        -0.1174
     19 C14        -1.9856    0.2877    3.7918 C.3       1 <0>        -0.0245
     20 C15        -2.8365    1.5286    3.4762 C.3       1 <0>        -0.1175
     21 C16        -2.7344    2.4262    4.7303 C.3       1 <0>        -0.1142
     22 C17        -1.8960    1.6459    5.7194 C.3       1 <0>        -0.1081
     23 H5         -1.3327    2.3005    6.3845 H         1 <0>         0.1059
     24 C18        -2.8208    0.6709    6.4392 C.2       1 <0>         0.3714
     25 O2         -2.8366    0.5783    7.6432 O.2       1 <0>        -0.4522
     26 C19        -3.7198   -0.1754    5.5601 C.3       1 <0>        -0.1687
     27 C20        -2.8686   -0.7777    4.4532 C.3       1 <0>        -0.0984
     28 H6          1.0039    1.9031    0.0027 H         1 <0>         0.0534
     29 H7         -0.5459    1.8868   -0.8726 H         1 <0>         0.0594
     30 H8         -0.5289    1.8773    0.9072 H         1 <0>         0.0605
     31 H9         -1.9569   -0.2536   -0.8433 H         1 <0>         0.0678
     32 H10        -1.3883   -1.6364    0.1318 H         1 <0>         0.0616
     33 H11        -2.1456    1.1327    1.1881 H         1 <0>         0.0728
     34 H12        -3.0997   -0.3520    1.3837 H         1 <0>         0.0633
     35 H13         2.4669    0.7658    1.3229 H         1 <0>         0.0683
     36 H14         2.8600   -0.9781    1.3967 H         1 <0>         0.0652
     37 H15         2.7030    0.6881   -0.9655 H         1 <0>         0.0737
     38 H16         2.9890   -1.0745   -0.8993 H         1 <0>         0.0639
     39 H17         1.2029   -0.0579   -3.0824 H         1 <0>         0.3759
     40 H18         0.7640   -1.2970    3.9370 H         1 <0>         0.0751
     41 H19         1.9437    0.0182    3.6718 H         1 <0>         0.0762
     42 H20         0.8440    0.9171    5.7201 H         1 <0>         0.1200
     43 H21        -2.4366    2.0491    2.6059 H         1 <0>         0.0780
     44 H22        -3.8732    1.2408    3.3013 H         1 <0>         0.0724
     45 H23        -2.2694    3.3785    4.4755 H         1 <0>         0.0794
     46 H24        -3.7236    2.5912    5.1573 H         1 <0>         0.0676
     47 H25        -4.1739   -0.9669    6.1564 H         1 <0>         0.0914
     48 H26        -4.4993    0.4501    5.1251 H         1 <0>         0.1024
     49 H27        -3.5396   -1.2047    3.7079 H         1 <0>         0.0778
     50 H28        -2.2378   -1.5662    4.8635 H         1 <0>         0.0693
@<TRIPOS>BOND
     1    1    2 1
     2    1   28 1
     3    1   29 1
     4    1   30 1
     5    2    9 1
     6    2   13 1
     7    2    3 1
     8    3    4 1
     9    3   31 1
    10    3   32 1
    11    4    5 1
    12    4   33 1
    13    4   34 1
    14    5    6 1
    15    5   19 1
    16    5    7 1
    17    7    8 1
    18    7    9 1
    19    7   16 1
    20    9   10 1
    21    9   11 1
    22   11   12 1
    23   11   35 1
    24   11   36 1
    25   12   13 1
    26   12   37 1
    27   12   38 1
    28   13   14 1
    29   13   15 1
    30   15   39 1
    31   16   17 1
    32   16   40 1
    33   16   41 1
    34   17   18 2
    35   17   42 1
    36   18   22 1
    37   18   19 1
    38   19   27 1
    39   19   20 1
    40   20   21 1
    41   20   43 1
    42   20   44 1
    43   21   22 1
    44   21   45 1
    45   21   46 1
    46   22   23 1
    47   22   24 1
    48   24   25 2
    49   24   26 1
    50   26   27 1
    51   26   47 1
    52   26   48 1
    53   27   49 1
    54   27   50 1
@<TRIPOS>MOLECULE
CHEMBL153706
   81    85     0     0     0
SMALL
USER_CHARGES

@<TRIPOS>ATOM
      1 C1         -0.0178    1.4608    0.0101 C.3       1 <0>         0.0504
      2 N1          0.0021   -0.0041    0.0020 N.pl3     1 <0>        -0.5408
      3 C2          0.0241   -0.7433    1.2666 C.3       1 <0>         0.1116
      4 C3         -1.4105   -1.0203    1.7205 C.3       1 <0>        -0.1305
      5 C4         -1.3875   -1.7923    3.0413 C.3       1 <0>        -0.0748
      6 C5         -2.8005   -2.0651    3.4884 C.ar      1 <0>        -0.0895
      7 C6         -3.4587   -1.1539    4.2931 C.ar      1 <0>        -0.1011
      8 C7         -4.7547   -1.4036    4.7034 C.ar      1 <0>        -0.1033
      9 C8         -5.3933   -2.5657    4.3087 C.ar      1 <0>        -0.0337
     10 C9         -4.7340   -3.4773    3.5034 C.ar      1 <0>        -0.1098
     11 C10        -3.4400   -3.2238    3.0890 C.ar      1 <0>        -0.1070
     12 Cl1        -7.0209   -2.8802    4.8242 Cl        1 <0>        -0.0555
     13 C11         0.0000   -0.6876   -1.1969 C.ar      1 <0>         0.6882
     14 N2         -0.0145   -0.0167   -2.3446 N.ar      1 <0>        -0.6345
     15 C12        -0.0165   -0.6751   -3.4993 C.ar      1 <0>         0.6999
     16 N3         -0.0039   -2.0045   -3.5066 N.ar      1 <0>        -0.6256
     17 C13         0.0110   -2.6753   -2.3592 C.ar      1 <0>         0.6919
     18 N4          0.0180   -2.0167   -1.2042 N.ar      1 <0>        -0.6198
     19 N5          0.0236   -4.0553   -2.3667 N.pl3     1 <0>        -0.5657
     20 C14         0.0340   -4.8185   -1.1091 C.3       1 <0>         0.0951
     21 C15        -1.0770   -5.8719   -1.1711 C.3       1 <0>        -0.0239
     22 N6         -0.9073   -6.6905   -2.3782 N.4       1 <0>        -0.3842
     23 C16        -1.0843   -5.8589   -3.5753 C.3       1 <0>        -0.0268
     24 C17         0.0207   -4.8048   -3.6325 C.3       1 <0>         0.0951
     25 C18        -1.9053   -7.7684   -2.3810 C.3       1 <0>         0.0190
     26 C19        -1.6805   -8.6999   -1.1720 C.3       1 <0>        -0.1425
     27 C20        -1.9992  -10.1140   -1.7177 C.3       1 <0>        -0.1254
     28 C21        -1.4212  -10.0646   -3.1538 C.3       1 <0>        -0.1314
     29 C22        -1.7404   -8.6361   -3.6411 C.3       1 <0>        -0.1449
     30 N7         -0.0320    0.0214   -4.6907 N.pl3     1 <0>        -0.6501
     31 C23        -0.0463    1.4863   -4.6827 C.3       1 <0>         0.0877
     32 C24        -0.0619    2.0041   -6.1224 C.3       1 <0>        -0.0828
     33 C25        -0.0766    3.5110   -6.1141 C.ar      1 <0>        -0.1180
     34 C26        -1.2813    4.1893   -6.0959 C.ar      1 <0>        -0.0932
     35 C27        -1.2975    5.5706   -6.0887 C.ar      1 <0>        -0.1428
     36 C28        -0.1036    6.2772   -6.0994 C.ar      1 <0>         0.1241
     37 C29         1.1038    5.5943   -6.1173 C.ar      1 <0>        -0.1424
     38 C30         1.1146    4.2128   -6.1191 C.ar      1 <0>        -0.0928
     39 O1         -0.1169    7.6362   -6.0929 O.3       1 <0>        -0.4957
     40 H1          1.0048    1.8381    0.0023 H         1 <0>         0.0968
     41 H2         -0.5450    1.8219   -0.8730 H         1 <0>         0.0762
     42 H3         -0.5280    1.8123    0.9069 H         1 <0>         0.1194
     43 H4          0.5496   -1.6879    1.1262 H         1 <0>         0.1072
     44 H5          0.5371   -0.1514    2.0246 H         1 <0>         0.1103
     45 H6         -1.9359   -0.0757    1.8610 H         1 <0>         0.0755
     46 H7         -1.9235   -1.6122    0.9626 H         1 <0>         0.0703
     47 H8         -0.8620   -2.7369    2.9008 H         1 <0>         0.0790
     48 H9         -0.8745   -1.2004    3.7993 H         1 <0>         0.0839
     49 H10        -2.9600   -0.2469    4.6014 H         1 <0>         0.1332
     50 H11        -5.2687   -0.6918    5.3324 H         1 <0>         0.1385
     51 H12        -5.2319   -4.3848    3.1952 H         1 <0>         0.1335
     52 H13        -2.9270   -3.9331    2.4564 H         1 <0>         0.1240
     53 H14         0.9990   -5.3106   -0.9873 H         1 <0>         0.1115
     54 H15        -0.1457   -4.1455   -0.2707 H         1 <0>         0.1475
     55 H16        -1.0226   -6.5098   -0.2888 H         1 <0>         0.1539
     56 H17        -2.0470   -5.3758   -1.2018 H         1 <0>         0.1369
     57 H18        -1.0353   -6.4871   -4.4648 H         1 <0>         0.1557
     58 H19        -2.0541   -5.3631   -3.5333 H         1 <0>         0.1372
     59 H20        -0.1678   -4.1228   -4.4616 H         1 <0>         0.1482
     60 H21         0.9842   -5.2955   -3.7698 H         1 <0>         0.1111
     61 H22        -2.9099   -7.3468   -2.3468 H         1 <0>         0.1419
     62 H23        -0.6452   -8.6452   -0.8356 H         1 <0>         0.0879
     63 H24        -2.3606   -8.4420   -0.3602 H         1 <0>         0.0995
     64 H25        -1.4970  -10.8789   -1.1253 H         1 <0>         0.0916
     65 H26        -3.0753  -10.2860   -1.7400 H         1 <0>         0.0853
     66 H27        -0.3440  -10.2302   -3.1374 H         1 <0>         0.0791
     67 H28        -1.9121  -10.8026   -3.7882 H         1 <0>         0.0904
     68 H29        -2.6653   -8.6363   -4.2179 H         1 <0>         0.1055
     69 H30        -0.9199   -8.2574   -4.2505 H         1 <0>         0.0850
     70 H31        -0.0334   -0.4590   -5.5334 H         1 <0>         0.4464
     71 H32        -0.9360    1.8381   -4.1604 H         1 <0>         0.0918
     72 H33         0.8438    1.8556   -4.1734 H         1 <0>         0.0927
     73 H34         0.8278    1.6523   -6.6447 H         1 <0>         0.0941
     74 H35        -0.9520    1.6348   -6.6317 H         1 <0>         0.0936
     75 H36        -2.2104    3.6388   -6.0876 H         1 <0>         0.1278
     76 H37        -2.2387    6.1000   -6.0752 H         1 <0>         0.1354
     77 H38         2.0345    6.1421   -6.1256 H         1 <0>         0.1357
     78 H39         2.0544    3.6807   -6.1285 H         1 <0>         0.1284
     79 H40        -0.1104    8.0253   -5.2077 H         1 <0>         0.3984
     80 H41        -0.0240    0.9532   -2.3393 H         1 <0>         0.4404
     81 H42         0.0182   -7.0924   -2.3832 H         1 <0>         0.4241
@<TRIPOS>BOND
     1    1    2 1
     2    1   40 1
     3    1   41 1
     4    1   42 1
     5    2    3 1
     6    2   13 1
     7    3    4 1
     8    3   43 1
     9    3   44 1
    10    4    5 1
    11    4   45 1
    12    4   46 1
    13    5    6 1
    14    5   47 1
    15    5   48 1
    16    6   11 ar
    17    6    7 ar
    18    7    8 ar
    19    7   49 1
    20    8    9 ar
    21    8   50 1
    22    9   10 ar
    23    9   12 1
    24   10   11 ar
    25   10   51 1
    26   11   52 1
    27   13   18 ar
    28   13   14 ar
    29   14   15 ar
    30   14   80 1
    31   15   16 ar
    32   15   30 1
    33   16   17 ar
    34   17   18 ar
    35   17   19 1
    36   19   24 1
    37   19   20 1
    38   20   21 1
    39   20   53 1
    40   20   54 1
    41   21   22 1
    42   21   55 1
    43   21   56 1
    44   22   23 1
    45   22   25 1
    46   22   81 1
    47   23   24 1
    48   23   57 1
    49   23   58 1
    50   24   59 1
    51   24   60 1
    52   25   29 1
    53   25   26 1
    54   25   61 1
    55   26   27 1
    56   26   62 1
    57   26   63 1
    58   27   28 1
    59   27   64 1
    60   27   65 1
    61   28   29 1
    62   28   66 1
    63   28   67 1
    64   29   68 1
    65   29   69 1
    66   30   31 1
    67   30   70 1
    68   31   32 1
    69   31   71 1
    70   31   72 1
    71   32   33 1
    72   32   73 1
    73   32   74 1
    74   33   38 ar
    75   33   34 ar
    76   34   35 ar
    77   34   75 1
    78   35   36 ar
    79   35   76 1
    80   36   37 ar
    81   36   39 1
    82   37   38 ar
    83   37   77 1
    84   38   78 1
    85   39   79 1
@<TRIPOS>MOLECULE
CHEMBL153706__1
   80    84     0     0     0
SMALL
USER_CHARGES

@<TRIPOS>ATOM
      1 C1         -0.0178    1.4608    0.0101 C.3       1 <0>         0.0992
      2 N1          0.0021   -0.0041    0.0020 N.pl3     1 <0>        -0.5709
      3 C2          0.0241   -0.7433    1.2666 C.3       1 <0>         0.1282
      4 C3         -1.4105   -1.0203    1.7205 C.3       1 <0>        -0.1255
      5 C4         -1.3875   -1.7923    3.0413 C.3       1 <0>        -0.0771
      6 C5         -2.8005   -2.0651    3.4884 C.ar      1 <0>        -0.0784
      7 C6         -3.4587   -1.1539    4.2931 C.ar      1 <0>        -0.1048
      8 C7         -4.7547   -1.4036    4.7034 C.ar      1 <0>        -0.1076
      9 C8         -5.3933   -2.5657    4.3087 C.ar      1 <0>        -0.0381
     10 C9         -4.7340   -3.4773    3.5034 C.ar      1 <0>        -0.1080
     11 C10        -3.4400   -3.2238    3.0890 C.ar      1 <0>        -0.1032
     12 Cl1        -7.0209   -2.8802    4.8242 Cl        1 <0>        -0.0670
     13 C11         0.0000   -0.6876   -1.1969 C.ar      1 <0>         0.6577
     14 N2          0.0126   -2.0171   -1.2042 N.ar      1 <0>        -0.6593
     15 C12         0.0106   -2.6754   -2.3589 C.ar      1 <0>         0.6587
     16 N3         -0.0039   -2.0045   -3.5066 N.ar      1 <0>        -0.6815
     17 C13        -0.0169   -0.6754   -3.4993 C.ar      1 <0>         0.6560
     18 N4         -0.0200   -0.0169   -2.3443 N.ar      1 <0>        -0.6771
     19 N5         -0.0315    0.0211   -4.6907 N.pl3     1 <0>        -0.5969
     20 C14        -0.0398    1.4921   -4.7069 C.3       1 <0>         0.1097
     21 C15         1.0694    1.9737   -5.6479 C.3       1 <0>        -0.0219
     22 N6          0.8954    1.3521   -6.9667 N.4       1 <0>        -0.3810
     23 C16         1.0705   -0.1019   -6.8613 C.3       1 <0>        -0.0251
     24 C17        -0.0330   -0.6864   -5.9805 C.3       1 <0>         0.1093
     25 C18         1.8918    1.8973   -7.8984 C.3       1 <0>         0.0196
     26 C19         1.6688    3.4124   -8.0835 C.3       1 <0>        -0.1420
     27 C20         1.9840    3.6628   -9.5792 C.3       1 <0>        -0.1245
     28 C21         1.4024    2.4025  -10.2667 C.3       1 <0>        -0.1303
     29 C22         1.7224    1.2551   -9.2864 C.3       1 <0>        -0.1446
     30 N7          0.0241   -4.0554   -2.3664 N.pl3     1 <0>        -0.6831
     31 C23         0.0405   -4.7947   -1.1018 C.3       1 <0>         0.1420
     32 C24         0.0532   -6.2974   -1.3895 C.3       1 <0>        -0.0914
     33 C25         0.0701   -7.0579   -0.0886 C.ar      1 <0>        -0.0958
     34 C26         1.2759   -7.3895    0.5013 C.ar      1 <0>        -0.0950
     35 C27         1.2941   -8.0869    1.6936 C.ar      1 <0>        -0.1429
     36 C28         0.1013   -8.4543    2.2993 C.ar      1 <0>         0.1099
     37 C29        -1.1072   -8.1200    1.7056 C.ar      1 <0>        -0.1423
     38 C30        -1.1201   -7.4179    0.5159 C.ar      1 <0>        -0.0948
     39 O1          0.1166   -9.1409    3.4720 O.3       1 <0>        -0.4991
     40 H1          1.0048    1.8381    0.0023 H         1 <0>         0.0560
     41 H2         -0.5450    1.8219   -0.8730 H         1 <0>         0.0790
     42 H3         -0.5280    1.8123    0.9069 H         1 <0>         0.0744
     43 H4          0.5496   -1.6879    1.1262 H         1 <0>         0.0923
     44 H5          0.5371   -0.1514    2.0246 H         1 <0>         0.0825
     45 H6         -1.9359   -0.0757    1.8610 H         1 <0>         0.0644
     46 H7         -1.9235   -1.6122    0.9626 H         1 <0>         0.0684
     47 H8         -0.8620   -2.7369    2.9008 H         1 <0>         0.0782
     48 H9         -0.8745   -1.2004    3.7993 H         1 <0>         0.0771
     49 H10        -2.9600   -0.2469    4.6014 H         1 <0>         0.1310
     50 H11        -5.2687   -0.6918    5.3324 H         1 <0>         0.1341
     51 H12        -5.2319   -4.3848    3.1952 H         1 <0>         0.1330
     52 H13        -2.9270   -3.9331    2.4564 H         1 <0>         0.1296
     53 H14        -1.0052    1.8490   -5.0659 H         1 <0>         0.0911
     54 H15         0.1430    1.8705   -3.7012 H         1 <0>         0.1413
     55 H16         1.0164    3.0579   -5.7472 H         1 <0>         0.1429
     56 H17         2.0401    1.6931   -5.2391 H         1 <0>         0.1319
     57 H18         1.0183   -0.5473   -7.8548 H         1 <0>         0.1445
     58 H19         2.0412   -0.3197   -6.4158 H         1 <0>         0.1322
     59 H20         0.1544   -1.7476   -5.8164 H         1 <0>         0.1419
     60 H21        -0.9976   -0.5532   -6.4702 H         1 <0>         0.0906
     61 H22         2.8971    1.7105   -7.5207 H         1 <0>         0.1388
     62 H23         0.6344    3.6756   -7.8624 H         1 <0>         0.0874
     63 H24         2.3513    3.9788   -7.4499 H         1 <0>         0.0978
     64 H25         1.4822    4.5629   -9.9344 H         1 <0>         0.0886
     65 H26         3.0598    3.7295   -9.7414 H         1 <0>         0.0831
     66 H27         0.3250    2.5026  -10.3981 H         1 <0>         0.0778
     67 H28         1.8905    2.2318  -11.2262 H         1 <0>         0.0873
     68 H29         2.6458    0.7575   -9.5828 H         1 <0>         0.1027
     69 H30         0.9009    0.5390   -9.2688 H         1 <0>         0.0855
     70 H31         0.0226   -4.5359   -3.2091 H         1 <0>         0.4163
     71 H32         0.9321   -4.5258   -0.5353 H         1 <0>         0.0732
     72 H33        -0.8477   -4.5432   -0.5223 H         1 <0>         0.0736
     73 H34        -0.8384   -6.5663   -1.9560 H         1 <0>         0.0815
     74 H35         0.9415   -6.5489   -1.9690 H         1 <0>         0.0812
     75 H36         2.2042   -7.1033    0.0294 H         1 <0>         0.1263
     76 H37         2.2362   -8.3464    2.1536 H         1 <0>         0.1304
     77 H38        -2.0371   -8.4048    2.1752 H         1 <0>         0.1305
     78 H39        -2.0606   -7.1535    0.0556 H         1 <0>         0.1265
     79 H40         0.1129   -8.5773    4.2578 H         1 <0>         0.3936
     80 H41        -0.0307    1.5539   -7.3127 H         1 <0>         0.4205
@<TRIPOS>BOND
     1    1    2 1
     2    1   40 1
     3    1   41 1
     4    1   42 1
     5    2    3 1
     6    2   13 1
     7    3    4 1
     8    3   43 1
     9    3   44 1
    10    4    5 1
    11    4   45 1
    12    4   46 1
    13    5    6 1
    14    5   47 1
    15    5   48 1
    16    6   11 ar
    17    6    7 ar
    18    7    8 ar
    19    7   49 1
    20    8    9 ar
    21    8   50 1
    22    9   10 ar
    23    9   12 1
    24   10   11 ar
    25   10   51 1
    26   11   52 1
    27   13   18 ar
    28   13   14 ar
    29   14   15 ar
    30   15   16 ar
    31   15   30 1
    32   16   17 ar
    33   17   18 ar
    34   17   19 1
    35   19   24 1
    36   19   20 1
    37   20   21 1
    38   20   53 1
    39   20   54 1
    40   21   22 1
    41   21   55 1
    42   21   56 1
    43   22   23 1
    44   22   25 1
    45   22   80 1
    46   23   24 1
    47   23   57 1
    48   23   58 1
    49   24   59 1
    50   24   60 1
    51   25   29 1
    52   25   26 1
    53   25   61 1
    54   26   27 1
    55   26   62 1
    56   26   63 1
    57   27   28 1
    58   27   64 1
    59   27   65 1
    60   28   29 1
    61   28   66 1
    62   28   67 1
    63   29   68 1
    64   29   69 1
    65   30   31 1
    66   30   70 1
    67   31   32 1
    68   31   71 1
    69   31   72 1
    70   32   33 1
    71   32   73 1
    72   32   74 1
    73   33   38 ar
    74   33   34 ar
    75   34   35 ar
    76   34   75 1
    77   35   36 ar
    78   35   76 1
    79   36   37 ar
    80   36   39 1
    81   37   38 ar
    82   37   77 1
    83   38   78 1
    84   39   79 1
@<TRIPOS>MOLECULE
CHEMBL472469
   54    57     0     0     0
SMALL
USER_CHARGES

@<TRIPOS>ATOM
      1 C1         -0.0178    1.4648    0.0101 C.3       1 <0>        -0.0546
      2 N1          0.0021   -0.0041    0.0020 N.4       1 <0>        -0.3889
      3 C2          0.6897   -0.4778   -1.2066 C.3       1 <0>        -0.0475
      4 C3          0.7126   -0.4907    1.1921 C.3       1 <0>        -0.0016
      5 C4         -0.0711   -0.1034    2.4478 C.3       1 <0>         0.0239
      6 O1         -1.3280   -0.7834    2.4535 O.3       1 <0>        -0.3282
      7 C5         -2.1518   -0.5482    3.5082 C.ar      1 <0>         0.1156
      8 C6         -1.7576    0.3251    4.5135 C.ar      1 <0>        -0.1985
      9 C7         -2.5904    0.5664    5.5851 C.ar      1 <0>        -0.0651
     10 C8         -3.8319   -0.0682    5.6588 C.ar      1 <0>        -0.0563
     11 C9         -4.2247   -0.9451    4.6457 C.ar      1 <0>        -0.0515
     12 C10        -3.3880   -1.1773    3.5750 C.ar      1 <0>        -0.1362
     13 C11        -4.7283    0.1874    6.8068 C.2       1 <0>        -0.0137
     14 C12        -5.9352    0.8035    6.6207 C.2       1 <0>        -0.0192
     15 C13        -6.7957    1.1082    7.8207 C.3       1 <0>        -0.1178
     16 C14        -7.4236   -0.1664    8.3727 C.3       1 <0>         0.0740
     17 O2         -6.4753   -1.2219    8.4535 O.3       1 <0>        -0.3257
     18 C15        -5.2503   -0.9277    8.9604 C.ar      1 <0>         0.1160
     19 C16        -4.3356   -0.2246    8.1699 C.ar      1 <0>        -0.0791
     20 C17        -3.0755    0.0779    8.6780 C.ar      1 <0>        -0.0924
     21 C18        -2.7404   -0.3213    9.9571 C.ar      1 <0>        -0.1251
     22 C19        -3.6508   -1.0186   10.7318 C.ar      1 <0>        -0.0940
     23 C20        -4.8978   -1.3160   10.2396 C.ar      1 <0>        -0.1291
     24 C21        -6.3843    1.1621    5.2769 C.2       1 <0>        -0.1067
     25 C22        -7.4708    0.6821    4.5606 C.2       1 <0>        -0.1426
     26 C23        -7.6908    1.1802    3.2980 C.2       1 <0>        -0.1503
     27 C24        -6.8454    2.1180    2.7957 C.2       1 <0>        -0.1825
     28 S1         -5.6823    2.3383    4.1316 S.3       1 <0>         0.0518
     29 H1          1.0047    1.8421    0.0024 H         1 <0>         0.1247
     30 H2         -0.5450    1.8259   -0.8730 H         1 <0>         0.1272
     31 H3         -0.5280    1.8163    0.9069 H         1 <0>         0.1216
     32 H4          1.7123   -0.1005   -1.2143 H         1 <0>         0.1231
     33 H5          0.7044   -1.5677   -1.2126 H         1 <0>         0.1248
     34 H6          0.1625   -0.1167   -2.0897 H         1 <0>         0.1257
     35 H7          0.8051   -1.5756    1.1418 H         1 <0>         0.1426
     36 H8          1.7055   -0.0428    1.2310 H         1 <0>         0.1493
     37 H9          0.4987   -0.3857    3.3332 H         1 <0>         0.1090
     38 H10        -0.2405    0.9733    2.4528 H         1 <0>         0.0870
     39 H11        -0.7971    0.8155    4.4558 H         1 <0>         0.1288
     40 H12        -2.2828    1.2451    6.3669 H         1 <0>         0.1311
     41 H13        -5.1841   -1.4382    4.6991 H         1 <0>         0.1343
     42 H14        -3.6927   -1.8523    2.7889 H         1 <0>         0.1336
     43 H15        -6.1822    1.5701    8.5943 H         1 <0>         0.0861
     44 H16        -7.5857    1.8003    7.5294 H         1 <0>         0.0949
     45 H17        -7.8194    0.0338    9.3684 H         1 <0>         0.0659
     46 H18        -8.2417   -0.4718    7.7203 H         1 <0>         0.1032
     47 H19        -2.3633    0.6216    8.0751 H         1 <0>         0.1261
     48 H20        -1.7635   -0.0885   10.3544 H         1 <0>         0.1294
     49 H21        -3.3796   -1.3266   11.7308 H         1 <0>         0.1324
     50 H22        -5.6005   -1.8614   10.8522 H         1 <0>         0.1345
     51 H23        -8.1271   -0.0641    4.9837 H         1 <0>         0.1363
     52 H24        -8.5268    0.8293    2.7113 H         1 <0>         0.1359
     53 H25        -6.8728    2.6086    1.8339 H         1 <0>         0.1839
     54 H26        -0.9445   -0.3533    0.0092 H         1 <0>         0.4340
@<TRIPOS>BOND
     1    1    2 1
     2    1   29 1
     3    1   30 1
     4    1   31 1
     5    2    3 1
     6    2    4 1
     7    2   54 1
     8    3   32 1
     9    3   33 1
    10    3   34 1
    11    4    5 1
    12    4   35 1
    13    4   36 1
    14    5    6 1
    15    5   37 1
    16    5   38 1
    17    6    7 1
    18    7   12 ar
    19    7    8 ar
    20    8    9 ar
    21    8   39 1
    22    9   10 ar
    23    9   40 1
    24   10   11 ar
    25   10   13 1
    26   11   12 ar
    27   11   41 1
    28   12   42 1
    29   13   19 1
    30   13   14 2
    31   14   15 1
    32   14   24 1
    33   15   16 1
    34   15   43 1
    35   15   44 1
    36   16   17 1
    37   16   45 1
    38   16   46 1
    39   17   18 1
    40   18   23 ar
    41   18   19 ar
    42   19   20 ar
    43   20   21 ar
    44   20   47 1
    45   21   22 ar
    46   21   48 1
    47   22   23 ar
    48   22   49 1
    49   23   50 1
    50   24   28 1
    51   24   25 2
    52   25   26 1
    53   25   51 1
    54   26   27 2
    55   26   52 1
    56   27   28 1
    57   27   53 1
@<TRIPOS>MOLECULE
CHEMBL511971
   65    69     0     0     0
SMALL
USER_CHARGES

@<TRIPOS>ATOM
      1 C1         -0.0319    1.0926    0.2021 C.ar      1 <0>        -0.0861
      2 C2          1.1051    1.8692    0.1578 C.ar      1 <0>        -0.1412
      3 C3          2.3563    1.2699    0.0854 C.ar      1 <0>         0.1100
      4 C4          2.4684   -0.1144    0.0573 C.ar      1 <0>        -0.1451
      5 C5          1.3379   -0.9007    0.1007 C.ar      1 <0>        -0.0819
      6 C6          0.0751   -0.3023    0.1741 C.ar      1 <0>        -0.0553
      7 C7         -1.1347   -1.1362    0.2211 C.2       1 <0>        -0.0467
      8 C8         -1.4725   -1.9243   -0.8393 C.2       1 <0>        -0.0348
      9 C9         -2.7290   -2.7003   -0.7865 C.ar      1 <0>        -0.0852
     10 C10        -2.7523   -4.0538   -1.1119 C.ar      1 <0>        -0.0649
     11 C11        -3.9420   -4.7511   -1.0526 C.ar      1 <0>        -0.1588
     12 C12        -5.1104   -4.1091   -0.6710 C.ar      1 <0>         0.1246
     13 C13        -5.0962   -2.7628   -0.3450 C.ar      1 <0>        -0.1668
     14 C14        -3.9109   -2.0529   -0.4006 C.ar      1 <0>         0.1443
     15 O1         -3.8725   -0.7327   -0.0855 O.3       1 <0>        -0.3212
     16 C15        -3.3126   -0.3738    1.1706 C.3       1 <0>         0.0724
     17 C16        -2.0155   -1.1364    1.4449 C.3       1 <0>        -0.1238
     18 F1         -6.2695   -4.8009   -0.6166 F         1 <0>        -0.1300
     19 C17        -0.5932   -2.0009   -2.0267 C.ar      1 <0>        -0.0509
     20 C18        -0.3856   -0.8698   -2.8179 C.ar      1 <0>        -0.0526
     21 C19         0.4343   -0.9451   -3.9234 C.ar      1 <0>        -0.1352
     22 C20         1.0531   -2.1445   -4.2508 C.ar      1 <0>         0.1147
     23 C21         0.8487   -3.2722   -3.4664 C.ar      1 <0>        -0.1992
     24 C22         0.0355   -3.2031   -2.3555 C.ar      1 <0>        -0.0715
     25 O2          1.8602   -2.2150   -5.3415 O.3       1 <0>        -0.3280
     26 C23         2.4649   -3.4794   -5.6204 C.3       1 <0>         0.0257
     27 C24         3.3314   -3.3643   -6.8762 C.3       1 <0>        -0.0011
     28 N1          4.4316   -2.4233   -6.6273 N.4       1 <0>        -0.3842
     29 C25         5.1692   -2.1942   -7.8755 C.3       1 <0>        -0.0071
     30 C26         6.2658   -1.1531   -7.6406 C.3       1 <0>        -0.1469
     31 C27         7.2271   -1.6662   -6.5646 C.3       1 <0>        -0.1387
     32 C28         6.4349   -1.9723   -5.2903 C.3       1 <0>        -0.1456
     33 C29         5.3321   -2.9830   -5.6123 C.3       1 <0>        -0.0128
     34 O3          3.4744    2.0406    0.0415 O.3       1 <0>        -0.5021
     35 H1         -1.0039    1.5595    0.2629 H         1 <0>         0.1299
     36 H2          1.0236    2.9459    0.1790 H         1 <0>         0.1324
     37 H3          3.4435   -0.5752    0.0010 H         1 <0>         0.1263
     38 H4          1.4262   -1.9768    0.0780 H         1 <0>         0.1236
     39 H5         -1.8436   -4.5558   -1.4097 H         1 <0>         0.1370
     40 H6         -3.9631   -5.8010   -1.3048 H         1 <0>         0.1427
     41 H7         -6.0095   -2.2683   -0.0485 H         1 <0>         0.1480
     42 H8         -3.1061    0.6965    1.1757 H         1 <0>         0.1058
     43 H9         -4.0307   -0.6006    1.9586 H         1 <0>         0.0670
     44 H10        -2.2523   -2.1651    1.7165 H         1 <0>         0.0850
     45 H11        -1.4840   -0.6615    2.2696 H         1 <0>         0.0956
     46 H12        -0.8670    0.0632   -2.5643 H         1 <0>         0.1341
     47 H13         0.5954   -0.0704   -4.5360 H         1 <0>         0.1333
     48 H14         1.3313   -4.2033   -3.7244 H         1 <0>         0.1283
     49 H15        -0.1189   -4.0791   -1.7431 H         1 <0>         0.1309
     50 H16         3.0862   -3.7791   -4.7765 H         1 <0>         0.0859
     51 H17         1.6875   -4.2260   -5.7826 H         1 <0>         0.1092
     52 H18         3.7401   -4.3432   -7.1265 H         1 <0>         0.1487
     53 H19         2.7235   -3.0016   -7.7051 H         1 <0>         0.1425
     54 H20         5.6213   -3.1291   -8.2067 H         1 <0>         0.1291
     55 H21         4.4831   -1.8321   -8.6412 H         1 <0>         0.1310
     56 H22         6.8135   -0.9858   -8.5681 H         1 <0>         0.1131
     57 H23         5.8148   -0.2177   -7.3096 H         1 <0>         0.0882
     58 H24         7.7168   -2.5743   -6.9164 H         1 <0>         0.0819
     59 H25         7.9776   -0.9046   -6.3531 H         1 <0>         0.0947
     60 H26         7.1035   -2.3905   -4.5377 H         1 <0>         0.1121
     61 H27         5.9874   -1.0539   -4.9105 H         1 <0>         0.0883
     62 H28         4.7662   -3.2033   -4.7071 H         1 <0>         0.1270
     63 H29         5.7807   -3.9011   -5.9917 H         1 <0>         0.1300
     64 H30         3.8424    2.2496    0.9110 H         1 <0>         0.3948
     65 H31         4.0555   -1.5477   -6.2958 H         1 <0>         0.4297
@<TRIPOS>BOND
     1    1    6 ar
     2    1    2 ar
     3    1   35 1
     4    2    3 ar
     5    2   36 1
     6    3    4 ar
     7    3   34 1
     8    4    5 ar
     9    4   37 1
    10    5    6 ar
    11    5   38 1
    12    6    7 1
    13    7   17 1
    14    7    8 2
    15    8    9 1
    16    8   19 1
    17    9   14 ar
    18    9   10 ar
    19   10   11 ar
    20   10   39 1
    21   11   12 ar
    22   11   40 1
    23   12   13 ar
    24   12   18 1
    25   13   14 ar
    26   13   41 1
    27   14   15 1
    28   15   16 1
    29   16   17 1
    30   16   42 1
    31   16   43 1
    32   17   44 1
    33   17   45 1
    34   19   24 ar
    35   19   20 ar
    36   20   21 ar
    37   20   46 1
    38   21   22 ar
    39   21   47 1
    40   22   23 ar
    41   22   25 1
    42   23   24 ar
    43   23   48 1
    44   24   49 1
    45   25   26 1
    46   26   27 1
    47   26   50 1
    48   26   51 1
    49   27   28 1
    50   27   52 1
    51   27   53 1
    52   28   33 1
    53   28   29 1
    54   28   65 1
    55   29   30 1
    56   29   54 1
    57   29   55 1
    58   30   31 1
    59   30   56 1
    60   30   57 1
    61   31   32 1
    62   31   58 1
    63   31   59 1
    64   32   33 1
    65   32   60 1
    66   32   61 1
    67   33   62 1
    68   33   63 1
    69   34   64 1
@<TRIPOS>MOLECULE
CHEMBL472468
   62    66     0     0     0
SMALL
USER_CHARGES

@<TRIPOS>ATOM
      1 C1         -0.0169    1.3917    0.0097 C.ar      1 <0>        -0.0926
      2 C2          1.1685    2.0953    0.0022 C.ar      1 <0>        -0.1407
      3 C3          2.3804    1.4173   -0.0131 C.ar      1 <0>         0.1096
      4 C4          2.4034    0.0288   -0.0207 C.ar      1 <0>        -0.1443
      5 C5          1.2222   -0.6819   -0.0137 C.ar      1 <0>        -0.0783
      6 C6          0.0021   -0.0041    0.0020 C.ar      1 <0>        -0.0480
      7 C7         -1.2679   -0.7631    0.0106 C.2       1 <0>        -0.0178
      8 C8         -1.6142   -1.5428   -1.0534 C.2       1 <0>        -0.0635
      9 C9         -2.9456   -2.2504   -1.0420 C.3       1 <0>        -0.1212
     10 C10        -2.9257   -3.4232   -0.0685 C.3       1 <0>         0.0728
     11 O1         -2.3243   -3.0636    1.1680 O.3       1 <0>        -0.3218
     12 C11        -2.6835   -1.8752    1.7180 C.ar      1 <0>         0.1439
     13 C12        -2.1755   -0.6913    1.1746 C.ar      1 <0>        -0.0883
     14 C13        -2.5324    0.5324    1.7334 C.ar      1 <0>        -0.0623
     15 C14        -3.3827    0.5660    2.8207 C.ar      1 <0>        -0.1577
     16 C15        -3.8802   -0.6123    3.3554 C.ar      1 <0>         0.1271
     17 C16        -3.5372   -1.8235    2.8039 C.ar      1 <0>        -0.1689
     18 F1         -4.7114   -0.5683    4.4195 F         1 <0>        -0.1301
     19 C17        -0.7017   -1.6911   -2.1964 C.ar      1 <0>        -0.0578
     20 C18        -0.3896   -0.5845   -2.9940 C.ar      1 <0>        -0.0564
     21 C19         0.4661   -0.7291   -4.0640 C.ar      1 <0>        -0.1368
     22 C20         1.0187   -1.9707   -4.3517 C.ar      1 <0>         0.1127
     23 C21         0.7120   -3.0728   -3.5636 C.ar      1 <0>        -0.1990
     24 C22        -0.1376   -2.9382   -2.4874 C.ar      1 <0>        -0.0655
     25 O2          1.8621   -2.1078   -5.4082 O.3       1 <0>        -0.3251
     26 C23         2.3949   -3.4118   -5.6480 C.3       1 <0>         0.0280
     27 C24         3.3159   -3.3698   -6.8691 C.3       1 <0>         0.0010
     28 N1          4.4794   -2.5225   -6.5759 N.4       1 <0>        -0.3912
     29 C25         4.0418   -1.1221   -6.3932 C.3       1 <0>        -0.0014
     30 C26         5.1810   -0.2687   -7.0044 C.3       1 <0>        -0.1457
     31 C27         5.5997   -1.1319   -8.2236 C.3       1 <0>        -0.1419
     32 C28         5.4280   -2.5746   -7.7035 C.3       1 <0>        -0.0134
     33 O3          3.5466    2.1144   -0.0209 O.3       1 <0>        -0.5023
     34 H1         -0.9589    1.9196    0.0260 H         1 <0>         0.1294
     35 H2          1.1547    3.1752    0.0077 H         1 <0>         0.1325
     36 H3          3.3478   -0.4949   -0.0326 H         1 <0>         0.1268
     37 H4          1.2409   -1.7617   -0.0204 H         1 <0>         0.1241
     38 H5         -3.7229   -1.5478   -0.7415 H         1 <0>         0.0851
     39 H6         -3.1644   -2.6194   -2.0440 H         1 <0>         0.0927
     40 H7         -3.9488   -3.7512    0.1150 H         1 <0>         0.0662
     41 H8         -2.3637   -4.2449   -0.5123 H         1 <0>         0.1022
     42 H9         -2.1462    1.4516    1.3183 H         1 <0>         0.1401
     43 H10        -3.6612    1.5140    3.2566 H         1 <0>         0.1441
     44 H11        -3.9291   -2.7362    3.2279 H         1 <0>         0.1469
     45 H12        -0.8190    0.3811   -2.7713 H         1 <0>         0.1331
     46 H13         0.7073    0.1242   -4.6804 H         1 <0>         0.1322
     47 H14         1.1439   -4.0359   -3.7922 H         1 <0>         0.1281
     48 H15        -0.3716   -3.7946   -1.8725 H         1 <0>         0.1308
     49 H16         2.9619   -3.7386   -4.7763 H         1 <0>         0.0855
     50 H17         1.5782   -4.1097   -5.8327 H         1 <0>         0.1087
     51 H18         3.6519   -4.3794   -7.1056 H         1 <0>         0.1488
     52 H19         2.7725   -2.9591   -7.7200 H         1 <0>         0.1402
     53 H20         3.1071   -0.9442   -6.9251 H         1 <0>         0.1375
     54 H21         3.9251   -0.8962   -5.3333 H         1 <0>         0.1343
     55 H22         4.8106    0.7053   -7.3242 H         1 <0>         0.1162
     56 H23         6.0068   -0.1591   -6.3015 H         1 <0>         0.0970
     57 H24         4.9402   -0.9468   -9.0715 H         1 <0>         0.0984
     58 H25         6.6384   -0.9403   -8.4929 H         1 <0>         0.1124
     59 H26         6.3879   -2.9627   -7.3629 H         1 <0>         0.1324
     60 H27         5.0287   -3.2090   -8.4948 H         1 <0>         0.1316
     61 H28         3.8928    2.3117    0.8602 H         1 <0>         0.3951
     62 H29         4.9333   -2.8467   -5.7351 H         1 <0>         0.4244
@<TRIPOS>BOND
     1    1    6 ar
     2    1    2 ar
     3    1   34 1
     4    2    3 ar
     5    2   35 1
     6    3    4 ar
     7    3   33 1
     8    4    5 ar
     9    4   36 1
    10    5    6 ar
    11    5   37 1
    12    6    7 1
    13    7   13 1
    14    7    8 2
    15    8    9 1
    16    8   19 1
    17    9   10 1
    18    9   38 1
    19    9   39 1
    20   10   11 1
    21   10   40 1
    22   10   41 1
    23   11   12 1
    24   12   17 ar
    25   12   13 ar
    26   13   14 ar
    27   14   15 ar
    28   14   42 1
    29   15   16 ar
    30   15   43 1
    31   16   17 ar
    32   16   18 1
    33   17   44 1
    34   19   24 ar
    35   19   20 ar
    36   20   21 ar
    37   20   45 1
    38   21   22 ar
    39   21   46 1
    40   22   23 ar
    41   22   25 1
    42   23   24 ar
    43   23   47 1
    44   24   48 1
    45   25   26 1
    46   26   27 1
    47   26   49 1
    48   26   50 1
    49   27   28 1
    50   27   51 1
    51   27   52 1
    52   28   32 1
    53   28   29 1
    54   28   62 1
    55   29   30 1
    56   29   53 1
    57   29   54 1
    58   30   31 1
    59   30   55 1
    60   30   56 1
    61   31   32 1
    62   31   57 1
    63   31   58 1
    64   32   59 1
    65   32   60 1
    66   33   61 1
@<TRIPOS>MOLECULE
CHEMBL122208
   55    58     0     0     0
SMALL
USER_CHARGES

@<TRIPOS>ATOM
      1 C1          0.0996    1.3111    0.6945 C.ar      1 <0>        -0.0792
      2 C2          1.2919    2.0033    0.7831 C.ar      1 <0>        -0.1395
      3 C3          2.4673    1.4180    0.3354 C.ar      1 <0>         0.1226
      4 C4          2.4421    0.1385   -0.2003 C.ar      1 <0>        -0.1441
      5 C5          1.2473   -0.5495   -0.2867 C.ar      1 <0>        -0.0942
      6 C6          0.0772    0.0361    0.1602 C.ar      1 <0>        -0.0913
      7 C7         -1.2248   -0.7169    0.0652 C.3       1 <0>        -0.0669
      8 H1         -2.0619   -0.0252    0.1594 H         1 <0>         0.1206
      9 C8         -1.2969   -1.7821    1.1721 C.3       1 <0>         0.1077
     10 H2         -1.1340   -1.3117    2.1418 H         1 <0>         0.1373
     11 O1         -2.5798   -2.3890    1.1484 O.3       1 <0>        -0.3092
     12 C9         -3.0485   -3.0330    0.0538 C.ar      1 <0>         0.1131
     13 C10        -4.0362   -3.9962    0.2461 C.ar      1 <0>        -0.1171
     14 C11        -4.5696   -4.6805   -0.8266 C.ar      1 <0>        -0.1097
     15 C12        -4.1276   -4.4148   -2.1143 C.ar      1 <0>         0.1003
     16 C13        -3.1419   -3.4626   -2.3174 C.ar      1 <0>        -0.0905
     17 C14        -2.5990   -2.7793   -1.2372 C.ar      1 <0>        -0.1477
     18 S1         -1.3202   -1.5944   -1.5271 S.3       1 <0>        -0.0808
     19 O2         -4.6585   -5.0853   -3.1714 O.3       1 <0>        -0.4940
     20 C15        -0.2220   -2.8439    0.9313 C.3       1 <0>        -0.1662
     21 C16        -0.2269   -3.8459    2.0875 C.3       1 <0>        -0.1443
     22 C17         0.8480   -4.9078    1.8467 C.3       1 <0>        -0.0097
     23 N1          0.8433   -5.8698    2.9568 N.4       1 <0>        -0.3823
     24 C18         1.2316   -5.1862    4.1964 C.3       1 <0>        -0.0120
     25 C19         1.1500   -6.1647    5.3700 C.3       1 <0>        -0.1459
     26 C20         2.0982   -7.3398    5.1146 C.3       1 <0>        -0.1393
     27 C21         1.7306   -7.9995    3.7824 C.3       1 <0>        -0.1464
     28 C22         1.7906   -6.9530    2.6676 C.3       1 <0>        -0.0072
     29 O3          3.6414    2.0970    0.4210 O.3       1 <0>        -0.4958
     30 H3         -0.8150    1.7646    1.0470 H         1 <0>         0.1330
     31 H4          1.3088    2.9994    1.2002 H         1 <0>         0.1373
     32 H5          3.3558   -0.3191   -0.5498 H         1 <0>         0.1342
     33 H6          1.2272   -1.5455   -0.7036 H         1 <0>         0.1363
     34 H7         -4.3876   -4.2098    1.2447 H         1 <0>         0.1386
     35 H8         -5.3337   -5.4260   -0.6630 H         1 <0>         0.1416
     36 H9         -2.7946   -3.2516   -3.3180 H         1 <0>         0.1399
     37 H10        -5.4321   -4.6558   -3.5613 H         1 <0>         0.3980
     38 H11        -0.4298   -3.3659   -0.0028 H         1 <0>         0.0957
     39 H12         0.7550   -2.3645    0.8701 H         1 <0>         0.1040
     40 H13        -0.0192   -3.3239    3.0215 H         1 <0>         0.0898
     41 H14        -1.2039   -4.3253    2.1487 H         1 <0>         0.0919
     42 H15         0.6402   -5.4298    0.9127 H         1 <0>         0.1313
     43 H16         1.8250   -4.4284    1.7855 H         1 <0>         0.1304
     44 H17         2.2527   -4.8166    4.1024 H         1 <0>         0.1280
     45 H18         0.5578   -4.3483    4.3750 H         1 <0>         0.1307
     46 H19         1.4404   -5.6558    6.2891 H         1 <0>         0.1117
     47 H20         0.1292   -6.5348    5.4651 H         1 <0>         0.0875
     48 H21         3.1250   -6.9767    5.0704 H         1 <0>         0.0815
     49 H22         2.0021   -8.0675    5.9205 H         1 <0>         0.0943
     50 H23         2.4360   -8.8020    3.5667 H         1 <0>         0.1123
     51 H24         0.7218   -8.4076    3.8445 H         1 <0>         0.0876
     52 H25         1.5296   -7.4194    1.7176 H         1 <0>         0.1298
     53 H26         2.7998   -6.5457    2.6062 H         1 <0>         0.1281
     54 H27         4.1186    1.9545    1.2499 H         1 <0>         0.3959
     55 H28        -0.0835   -6.2544    3.0633 H         1 <0>         0.4224
@<TRIPOS>BOND
     1    1    6 ar
     2    1    2 ar
     3    1   30 1
     4    2    3 ar
     5    2   31 1
     6    3    4 ar
     7    3   29 1
     8    4    5 ar
     9    4   32 1
    10    5    6 ar
    11    5   33 1
    12    6    7 1
    13    7    8 1
    14    7   18 1
    15    7    9 1
    16    9   10 1
    17    9   11 1
    18    9   20 1
    19   11   12 1
    20   12   17 ar
    21   12   13 ar
    22   13   14 ar
    23   13   34 1
    24   14   15 ar
    25   14   35 1
    26   15   16 ar
    27   15   19 1
    28   16   17 ar
    29   16   36 1
    30   17   18 1
    31   19   37 1
    32   20   21 1
    33   20   38 1
    34   20   39 1
    35   21   22 1
    36   21   40 1
    37   21   41 1
    38   22   23 1
    39   22   42 1
    40   22   43 1
    41   23   28 1
    42   23   24 1
    43   23   55 1
    44   24   25 1
    45   24   44 1
    46   24   45 1
    47   25   26 1
    48   25   46 1
    49   25   47 1
    50   26   27 1
    51   26   48 1
    52   26   49 1
    53   27   28 1
    54   27   50 1
    55   27   51 1
    56   28   52 1
    57   28   53 1
    58   29   54 1
@<TRIPOS>MOLECULE
CHEMBL90008
   41    43     0     0     0
SMALL
USER_CHARGES

@<TRIPOS>ATOM
      1 C1          0.5709    1.4336    0.2966 C.3       1 <0>        -0.1573
      2 C2          0.0713    0.0122    0.0303 C.3       1 <0>        -0.1042
      3 C3         -1.4582    0.0076   -0.0061 C.3       1 <0>        -0.1489
      4 C4          0.6149   -0.4760   -1.3139 C.3       1 <0>         0.2163
      5 C5         -0.1458    0.1884   -2.4341 C.ar      1 <0>        -0.0887
      6 C6         -0.3155    1.5655   -2.3727 C.ar      1 <0>        -0.1159
      7 C7         -0.9924    2.2340   -3.3703 C.ar      1 <0>        -0.1486
      8 C8         -1.5073    1.5240   -4.4456 C.ar      1 <0>         0.1043
      9 C9         -1.3411    0.1513   -4.5038 C.ar      1 <0>        -0.1494
     10 C10        -0.6641   -0.5211   -3.4946 C.ar      1 <0>        -0.0502
     11 C11        -0.5460   -2.0180   -3.6118 C.3       1 <0>        -0.1013
     12 C12         0.5905   -2.5442   -2.7367 C.3       1 <0>         0.1413
     13 N1          0.4570   -1.9314   -1.4047 N.pl3     1 <0>        -0.6647
     14 C13         0.1902   -2.7051   -0.2728 C.ar      1 <0>         0.1944
     15 C14        -0.9992   -3.4167   -0.1805 C.ar      1 <0>        -0.1420
     16 C15        -1.2596   -4.1810    0.9399 C.ar      1 <0>        -0.1040
     17 C16        -0.3381   -4.2380    1.9694 C.ar      1 <0>        -0.1373
     18 C17         0.8470   -3.5309    1.8808 C.ar      1 <0>        -0.1047
     19 C18         1.1163   -2.7691    0.7607 C.ar      1 <0>        -0.1432
     20 O1         -2.1721    2.1737   -5.4370 O.3       1 <0>        -0.5005
     21 H1          1.5289    1.5813   -0.2019 H         1 <0>         0.0603
     22 H2         -0.1534    2.1514   -0.0883 H         1 <0>         0.0679
     23 H3          0.6932    1.5807    1.3697 H         1 <0>         0.0600
     24 H4          0.4178   -0.6494    0.8243 H         1 <0>         0.0872
     25 H5         -1.8027    0.5733   -0.8718 H         1 <0>         0.0607
     26 H6         -1.8169   -1.0192   -0.0767 H         1 <0>         0.0582
     27 H7         -1.8447    0.4656    0.9044 H         1 <0>         0.0515
     28 H8          1.6716   -0.2203   -1.3923 H         1 <0>         0.0685
     29 H9          0.0862    2.1175   -1.5358 H         1 <0>         0.1467
     30 H10        -1.1216    3.3049   -3.3151 H         1 <0>         0.1278
     31 H11        -1.7413   -0.4016   -5.3408 H         1 <0>         0.1255
     32 H12        -1.4831   -2.4772   -3.2969 H         1 <0>         0.0783
     33 H13        -0.3499   -2.2818   -4.6510 H         1 <0>         0.0803
     34 H14         0.5193   -3.6286   -2.6526 H         1 <0>         0.0791
     35 H15         1.5503   -2.2698   -3.1744 H         1 <0>         0.0628
     36 H16        -1.7196   -3.3720   -0.9838 H         1 <0>         0.1181
     37 H17        -2.1841   -4.7345    1.0123 H         1 <0>         0.1204
     38 H18        -0.5445   -4.8359    2.8448 H         1 <0>         0.1199
     39 H19         1.5646   -3.5776    2.6866 H         1 <0>         0.1211
     40 H20         2.0439   -2.2207    0.6901 H         1 <0>         0.1201
     41 H21        -1.6048    2.4725   -6.1608 H         1 <0>         0.3902
@<TRIPOS>BOND
     1    1    2 1
     2    1   21 1
     3    1   22 1
     4    1   23 1
     5    2    3 1
     6    2    4 1
     7    2   24 1
     8    3   25 1
     9    3   26 1
    10    3   27 1
    11    4   13 1
    12    4    5 1
    13    4   28 1
    14    5   10 ar
    15    5    6 ar
    16    6    7 ar
    17    6   29 1
    18    7    8 ar
    19    7   30 1
    20    8    9 ar
    21    8   20 1
    22    9   10 ar
    23    9   31 1
    24   10   11 1
    25   11   12 1
    26   11   32 1
    27   11   33 1
    28   12   13 1
    29   12   34 1
    30   12   35 1
    31   13   14 1
    32   14   19 ar
    33   14   15 ar
    34   15   16 ar
    35   15   36 1
    36   16   17 ar
    37   16   37 1
    38   17   18 ar
    39   17   38 1
    40   18   19 ar
    41   18   39 1
    42   19   40 1
    43   20   41 1
@<TRIPOS>MOLECULE
CHEMBL90008__1
   41    43     0     0     0
SMALL
USER_CHARGES

@<TRIPOS>ATOM
      1 C1         -0.0016    1.5404   -0.0201 C.3       1 <0>        -0.1608
      2 C2          0.0082    0.0104   -0.0171 C.3       1 <0>        -0.1013
      3 C3         -1.4310   -0.5088   -0.0115 C.3       1 <0>        -0.1433
      4 C4          0.7287   -0.4974   -1.2677 C.3       1 <0>         0.2003
      5 C5          2.1457    0.0194   -1.2751 C.ar      1 <0>        -0.0985
      6 C6          2.3395    1.3719   -1.5240 C.ar      1 <0>        -0.0964
      7 C7          3.6094    1.9084   -1.5344 C.ar      1 <0>        -0.1489
      8 C8          4.7029    1.0891   -1.2925 C.ar      1 <0>         0.1094
      9 C9          4.5090   -0.2593   -1.0485 C.ar      1 <0>        -0.1489
     10 C10         3.2292   -0.7990   -1.0446 C.ar      1 <0>        -0.0479
     11 C11         3.0976   -2.2790   -0.7988 C.3       1 <0>        -0.1005
     12 C12         1.6801   -2.6322   -0.3513 C.3       1 <0>         0.1206
     13 N1          0.7376   -1.9641   -1.2640 N.pl3     1 <0>        -0.6222
     14 C13        -0.1135   -2.6976   -2.0937 C.ar      1 <0>         0.2262
     15 C14        -1.0693   -2.0451   -2.8620 C.ar      1 <0>        -0.1969
     16 C15        -1.9090   -2.7734   -3.6816 C.ar      1 <0>        -0.0717
     17 C16        -1.7995   -4.1508   -3.7376 C.ar      1 <0>        -0.1798
     18 C17        -0.8491   -4.8036   -2.9741 C.ar      1 <0>        -0.0715
     19 C18        -0.0024   -4.0809   -2.1567 C.ar      1 <0>        -0.1999
     20 O1          5.9587    1.6085   -1.2956 O.3       1 <0>        -0.4994
     21 H1          1.0238    1.9103   -0.0241 H         1 <0>         0.0695
     22 H2         -0.5205    1.8987   -0.9091 H         1 <0>         0.0572
     23 H3         -0.5149    1.9022    0.8708 H         1 <0>         0.0591
     24 H4          0.5272   -0.3479    0.8719 H         1 <0>         0.0724
     25 H5         -1.9500   -0.1504   -0.9006 H         1 <0>         0.0547
     26 H6         -1.4240   -1.5987   -0.0094 H         1 <0>         0.0591
     27 H7         -1.9443   -0.1470    0.8794 H         1 <0>         0.0545
     28 H8          0.2084   -0.1400   -2.1563 H         1 <0>         0.0968
     29 H9          1.4878    2.0090   -1.7115 H         1 <0>         0.1345
     30 H10         3.7524    2.9608   -1.7301 H         1 <0>         0.1304
     31 H11         5.3598   -0.8972   -0.8597 H         1 <0>         0.1277
     32 H12         3.3277   -2.8170   -1.7184 H         1 <0>         0.0827
     33 H13         3.8031   -2.5778   -0.0235 H         1 <0>         0.0852
     34 H14         1.5366   -3.7117   -0.3985 H         1 <0>         0.0903
     35 H15         1.5172   -2.2821    0.6680 H         1 <0>         0.0697
     36 H16        -1.1559   -0.9695   -2.8182 H         1 <0>         0.1195
     37 H17        -2.6523   -2.2667   -4.2792 H         1 <0>         0.1194
     38 H18        -2.4578   -4.7180   -4.3788 H         1 <0>         0.1170
     39 H19        -0.7662   -5.8794   -3.0201 H         1 <0>         0.1196
     40 H20         0.7426   -4.5909   -1.5640 H         1 <0>         0.1208
     41 H21         6.2555    1.9252   -0.4314 H         1 <0>         0.3914
@<TRIPOS>BOND
     1    1    2 1
     2    1   21 1
     3    1   22 1
     4    1   23 1
     5    2    3 1
     6    2    4 1
     7    2   24 1
     8    3   25 1
     9    3   26 1
    10    3   27 1
    11    4   13 1
    12    4    5 1
    13    4   28 1
    14    5   10 ar
    15    5    6 ar
    16    6    7 ar
    17    6   29 1
    18    7    8 ar
    19    7   30 1
    20    8    9 ar
    21    8   20 1
    22    9   10 ar
    23    9   31 1
    24   10   11 1
    25   11   12 1
    26   11   32 1
    27   11   33 1
    28   12   13 1
    29   12   34 1
    30   12   35 1
    31   13   14 1
    32   14   19 ar
    33   14   15 ar
    34   15   16 ar
    35   15   36 1
    36   16   17 ar
    37   16   37 1
    38   17   18 ar
    39   17   38 1
    40   18   19 ar
    41   18   39 1
    42   19   40 1
    43   20   41 1
@<TRIPOS>MOLECULE
CHEMBL340111
   59    63     0     0     0
SMALL
USER_CHARGES

@<TRIPOS>ATOM
      1 C1          0.2993    1.2628   -0.6808 C.ar      1 <0>        -0.0966
      2 C2          1.4359    2.0210   -0.4709 C.ar      1 <0>        -0.0969
      3 C3          2.6630    1.4013   -0.3250 C.ar      1 <0>        -0.0459
      4 C4          2.7533    0.0234   -0.3884 C.ar      1 <0>        -0.0721
      5 C5          1.6165   -0.7349   -0.5974 C.ar      1 <0>        -0.0930
      6 C6          0.3897   -0.1151   -0.7448 C.ar      1 <0>        -0.1514
      7 C7         -0.8495   -0.9418   -0.9731 C.3       1 <0>         0.0431
      8 N1         -1.0511   -1.1337   -2.4155 N.4       1 <0>        -0.3815
      9 C8         -1.3178    0.1639   -3.0477 C.3       1 <0>        -0.0132
     10 C9         -1.4483   -0.0191   -4.5613 C.3       1 <0>        -0.1450
     11 C10        -2.6042   -0.9794   -4.8561 C.3       1 <0>        -0.1391
     12 C11        -2.3516   -2.3044   -4.1309 C.3       1 <0>        -0.1463
     13 C12        -2.1876   -2.0367   -2.6333 C.3       1 <0>        -0.0072
     14 C13         3.9022    2.2280   -0.0971 C.3       1 <0>         0.1402
     15 H1          3.7219    3.2525   -0.4226 H         1 <0>         0.1002
     16 C14         4.2588    2.2187    1.3988 C.3       1 <0>        -0.0661
     17 H2          3.4016    2.5454    1.9874 H         1 <0>         0.1399
     18 S1          5.6442    3.3784    1.6224 S.3       1 <0>        -0.0745
     19 C15         6.6920    2.9957    0.2526 C.ar      1 <0>        -0.1487
     20 C16         7.9911    3.4862    0.2397 C.ar      1 <0>        -0.0896
     21 C17         8.8298    3.2070   -0.8271 C.ar      1 <0>         0.1018
     22 C18         8.3637    2.4374   -1.8829 C.ar      1 <0>        -0.1066
     23 C19         7.0742    1.9472   -1.8691 C.ar      1 <0>        -0.1128
     24 C20         6.2239    2.2159   -0.7990 C.ar      1 <0>         0.1182
     25 O1          4.9821    1.6782   -0.8363 O.3       1 <0>        -0.3056
     26 O2         10.1028    3.6850   -0.8392 O.3       1 <0>        -0.4913
     27 C21         4.6732    0.8324    1.8200 C.ar      1 <0>        -0.0934
     28 C22         5.9210    0.3494    1.4717 C.ar      1 <0>        -0.0872
     29 C23         6.3031   -0.9213    1.8563 C.ar      1 <0>        -0.1399
     30 C24         5.4338   -1.7126    2.5930 C.ar      1 <0>         0.1177
     31 C25         4.1825   -1.2254    2.9417 C.ar      1 <0>        -0.1456
     32 C26         3.8072    0.0479    2.5591 C.ar      1 <0>        -0.0837
     33 O3          5.8072   -2.9631    2.9722 O.3       1 <0>        -0.5000
     34 H3         -0.6600    1.7467   -0.7904 H         1 <0>         0.1356
     35 H4          1.3654    3.0976   -0.4214 H         1 <0>         0.1396
     36 H5          3.7120   -0.4607   -0.2751 H         1 <0>         0.1393
     37 H6          1.6872   -1.8114   -0.6477 H         1 <0>         0.1336
     38 H7         -0.7331   -1.9120   -0.4903 H         1 <0>         0.1375
     39 H8         -1.7125   -0.4270   -0.5509 H         1 <0>         0.1359
     40 H9         -2.2451    0.5772   -2.6508 H         1 <0>         0.1277
     41 H10        -0.4959    0.8473   -2.8343 H         1 <0>         0.1307
     42 H11        -1.6481    0.9452   -5.0286 H         1 <0>         0.1111
     43 H12        -0.5214   -0.4321   -4.9593 H         1 <0>         0.0866
     44 H13        -3.5391   -0.5436   -4.5037 H         1 <0>         0.0817
     45 H14        -2.6654   -1.1574   -5.9297 H         1 <0>         0.0939
     46 H15        -3.1970   -2.9737   -4.2906 H         1 <0>         0.1124
     47 H16        -1.4434   -2.7648   -4.5200 H         1 <0>         0.0872
     48 H17        -2.0078   -2.9781   -2.1140 H         1 <0>         0.1302
     49 H18        -3.0963   -1.5766   -2.2452 H         1 <0>         0.1288
     50 H19         8.3486    4.0863    1.0633 H         1 <0>         0.1417
     51 H20         9.0127    2.2210   -2.7186 H         1 <0>         0.1436
     52 H21         6.7205    1.3495   -2.6961 H         1 <0>         0.1405
     53 H22        10.7494    3.0922   -0.4325 H         1 <0>         0.3959
     54 H23         6.5974    0.9658    0.8982 H         1 <0>         0.1320
     55 H24         7.2776   -1.2984    1.5833 H         1 <0>         0.1315
     56 H25         3.5040   -1.8395    3.5151 H         1 <0>         0.1313
     57 H26         2.8349    0.4293    2.8340 H         1 <0>         0.1246
     58 H27         6.2515   -2.9976    3.8303 H         1 <0>         0.3972
     59 H28        -0.2195   -1.5378   -2.8195 H         1 <0>         0.4219
@<TRIPOS>BOND
     1    1    6 ar
     2    1    2 ar
     3    1   34 1
     4    2    3 ar
     5    2   35 1
     6    3    4 ar
     7    3   14 1
     8    4    5 ar
     9    4   36 1
    10    5    6 ar
    11    5   37 1
    12    6    7 1
    13    7    8 1
    14    7   38 1
    15    7   39 1
    16    8   13 1
    17    8    9 1
    18    8   59 1
    19    9   10 1
    20    9   40 1
    21    9   41 1
    22   10   11 1
    23   10   42 1
    24   10   43 1
    25   11   12 1
    26   11   44 1
    27   11   45 1
    28   12   13 1
    29   12   46 1
    30   12   47 1
    31   13   48 1
    32   13   49 1
    33   14   15 1
    34   14   25 1
    35   14   16 1
    36   16   17 1
    37   16   18 1
    38   16   27 1
    39   18   19 1
    40   19   24 ar
    41   19   20 ar
    42   20   21 ar
    43   20   50 1
    44   21   22 ar
    45   21   26 1
    46   22   23 ar
    47   22   51 1
    48   23   24 ar
    49   23   52 1
    50   24   25 1
    51   26   53 1
    52   27   32 ar
    53   27   28 ar
    54   28   29 ar
    55   28   54 1
    56   29   30 ar
    57   29   55 1
    58   30   31 ar
    59   30   33 1
    60   31   32 ar
    61   31   56 1
    62   32   57 1
    63   33   58 1
@<TRIPOS>MOLECULE
CHEMBL135236
   40    43     0     0     0
SMALL
USER_CHARGES

@<TRIPOS>ATOM
      1 C1         -0.0187    1.5258    0.0104 C.3       1 <0>        -0.1488
      2 C2          0.0021   -0.0041    0.0020 C.3       1 <0>        -0.0568
      3 C3         -1.4124   -0.5389    0.1053 C.3       1 <0>        -0.0915
      4 C4         -2.0909    0.2137    1.2559 C.3       1 <0>        -0.0840
      5 C5         -1.1820    0.4428    2.4339 C.ar      1 <0>        -0.0575
      6 C6         -1.7535    1.0152    3.5933 C.ar      1 <0>        -0.0591
      7 C7         -3.1262    1.3213    3.6331 C.ar      1 <0>        -0.0920
      8 C8         -3.6607    1.8735    4.7548 C.ar      1 <0>        -0.1398
      9 C9         -2.8654    2.1424    5.8732 C.ar      1 <0>         0.1072
     10 C10        -1.5296    1.8570    5.8679 C.ar      1 <0>        -0.1347
     11 C11        -0.9479    1.2854    4.7237 C.ar      1 <0>        -0.0370
     12 C12         0.4230    0.9771    4.6823 C.ar      1 <0>        -0.1112
     13 C13         0.9420    0.4134    3.5606 C.ar      1 <0>        -0.1023
     14 C14         0.1484    0.1373    2.4459 C.ar      1 <0>        -0.0612
     15 C15         0.7511   -0.5290    1.2564 C.3       1 <0>        -0.0531
     16 H1          0.6359   -1.6103    1.3322 H         1 <0>         0.0920
     17 C16         2.2003   -0.1723    0.9212 C.3       1 <0>        -0.1119
     18 C17         2.3080   -0.5536   -0.5821 C.3       1 <0>        -0.1563
     19 C18         0.8658   -0.5039   -1.1491 C.3       1 <0>         0.1125
     20 H2          0.8134    0.1883   -1.9895 H         1 <0>         0.0605
     21 O1          0.4466   -1.8089   -1.5533 O.3       1 <0>        -0.5605
     22 O2         -3.4286    2.6951    6.9795 O.3       1 <0>        -0.5006
     23 H3          1.0039    1.9031    0.0027 H         1 <0>         0.0576
     24 H4         -0.5459    1.8868   -0.8726 H         1 <0>         0.0565
     25 H5         -0.5289    1.8773    0.9072 H         1 <0>         0.0719
     26 H6         -1.9483   -0.3562   -0.8261 H         1 <0>         0.0702
     27 H7         -1.3916   -1.6072    0.3205 H         1 <0>         0.0732
     28 H8         -2.4359    1.1796    0.8870 H         1 <0>         0.0782
     29 H9         -2.9559   -0.3606    1.5877 H         1 <0>         0.0760
     30 H10        -3.7523    1.1190    2.7767 H         1 <0>         0.1331
     31 H11        -4.7146    2.1082    4.7823 H         1 <0>         0.1292
     32 H12        -0.9249    2.0689    6.7373 H         1 <0>         0.1330
     33 H13         1.0561    1.1863    5.5319 H         1 <0>         0.1285
     34 H14         1.9945    0.1734    3.5304 H         1 <0>         0.1230
     35 H15         2.3785    0.8936    1.0632 H         1 <0>         0.0728
     36 H16         2.8923   -0.7640    1.5205 H         1 <0>         0.0694
     37 H17         2.9409    0.1630   -1.1056 H         1 <0>         0.0701
     38 H18         2.7161   -1.5591   -0.6849 H         1 <0>         0.0750
     39 H19         0.9611   -2.1786   -2.2838 H         1 <0>         0.3771
     40 H20        -3.7631    2.0481    7.6156 H         1 <0>         0.3913
@<TRIPOS>BOND
     1    1    2 1
     2    1   23 1
     3    1   24 1
     4    1   25 1
     5    2   15 1
     6    2   19 1
     7    2    3 1
     8    3    4 1
     9    3   26 1
    10    3   27 1
    11    4    5 1
    12    4   28 1
    13    4   29 1
    14    5   14 ar
    15    5    6 ar
    16    6   11 ar
    17    6    7 ar
    18    7    8 ar
    19    7   30 1
    20    8    9 ar
    21    8   31 1
    22    9   10 ar
    23    9   22 1
    24   10   11 ar
    25   10   32 1
    26   11   12 ar
    27   12   13 ar
    28   12   33 1
    29   13   14 ar
    30   13   34 1
    31   14   15 1
    32   15   16 1
    33   15   17 1
    34   17   18 1
    35   17   35 1
    36   17   36 1
    37   18   19 1
    38   18   37 1
    39   18   38 1
    40   19   20 1
    41   19   21 1
    42   21   39 1
    43   22   40 1
@<TRIPOS>MOLECULE
CHEMBL334096
   54    58     0     0     0
SMALL
USER_CHARGES

@<TRIPOS>ATOM
      1 C1         -0.0816    1.1111    0.4741 C.ar      1 <0>        -0.0967
      2 C2          1.1245    1.7488    0.6804 C.ar      1 <0>        -0.0990
      3 C3          2.3049    1.0059    0.7214 C.ar      1 <0>        -0.0733
      4 C4          2.2571   -0.3785    0.5532 C.ar      1 <0>        -0.1015
      5 C5          1.0447   -1.0040    0.3476 C.ar      1 <0>        -0.0730
      6 C6         -0.1221   -0.2617    0.3080 C.ar      1 <0>        -0.0642
      7 C7         -1.4429   -0.9515    0.0830 C.3       1 <0>         0.1434
      8 H1         -2.2532   -0.3084    0.4263 H         1 <0>         0.0977
      9 C8         -1.6203   -1.2464   -1.4159 C.3       1 <0>        -0.0654
     10 H2         -1.5033   -0.3285   -1.9919 H         1 <0>         0.1395
     11 S1         -3.3034   -1.9055   -1.6326 S.3       1 <0>        -0.0785
     12 C9         -3.4546   -3.0294   -0.2780 C.ar      1 <0>        -0.1487
     13 C10        -4.5063   -3.9361   -0.2683 C.ar      1 <0>        -0.0894
     14 C11        -4.6514   -4.8223    0.7867 C.ar      1 <0>         0.0996
     15 C12        -3.7421   -4.7967    1.8340 C.ar      1 <0>        -0.1068
     16 C13        -2.6952   -3.8983    1.8232 C.ar      1 <0>        -0.1141
     17 C14        -2.5353   -3.0069    0.7648 C.ar      1 <0>         0.1197
     18 O1         -1.4690   -2.1738    0.8041 O.3       1 <0>        -0.3050
     19 O2         -5.6797   -5.7119    0.7958 O.3       1 <0>        -0.4916
     20 C15        -0.6052   -2.2666   -1.8629 C.ar      1 <0>        -0.0884
     21 C16         0.4945   -1.8687   -2.6005 C.ar      1 <0>        -0.0828
     22 C17         1.4262   -2.8020   -3.0118 C.ar      1 <0>        -0.1458
     23 C18         1.2580   -4.1394   -2.6838 C.ar      1 <0>         0.1147
     24 C19         0.1540   -4.5361   -1.9432 C.ar      1 <0>        -0.1396
     25 C20        -0.7722   -3.5982   -1.5299 C.ar      1 <0>        -0.0876
     26 O3          2.1730   -5.0596   -3.0877 O.3       1 <0>        -0.4967
     27 C21         3.6004    1.6825    0.9416 C.2       1 <0>        -0.0469
     28 C22         3.8177    2.2765    2.0951 C.2       1 <0>        -0.1906
     29 C23         5.0966    2.9952    2.4156 C.3       1 <0>         0.0367
     30 N1          6.1621    2.5782    1.4966 N.4       1 <0>        -0.5087
     31 C24         5.6879    2.7324    0.1122 C.3       1 <0>        -0.0038
     32 C25         4.6254    1.6620   -0.1589 C.3       1 <0>        -0.1155
     33 H3         -0.9964    1.6845    0.4466 H         1 <0>         0.1340
     34 H4          1.1548    2.8206    0.8095 H         1 <0>         0.1297
     35 H5          3.1673   -0.9590    0.5836 H         1 <0>         0.1247
     36 H6          1.0064   -2.0754    0.2170 H         1 <0>         0.1328
     37 H7         -5.2126   -3.9508   -1.0852 H         1 <0>         0.1411
     38 H8         -3.8539   -5.4828    2.6606 H         1 <0>         0.1429
     39 H9         -1.9927   -3.8859    2.6435 H         1 <0>         0.1406
     40 H10        -5.4724   -6.5571    0.3740 H         1 <0>         0.3951
     41 H11         0.6250   -0.8274   -2.8556 H         1 <0>         0.1244
     42 H12         2.2847   -2.4908   -3.5886 H         1 <0>         0.1299
     43 H13         0.0209   -5.5767   -1.6867 H         1 <0>         0.1310
     44 H14        -1.6295   -3.9058   -0.9495 H         1 <0>         0.1319
     45 H15         2.8936   -5.2002   -2.4583 H         1 <0>         0.3915
     46 H16         3.0413    2.2462    2.8452 H         1 <0>         0.1514
     47 H17         4.9396    4.0697    2.3217 H         1 <0>         0.1412
     48 H18         5.3927    2.7650    3.4391 H         1 <0>         0.1434
     49 H19         6.9771    3.1552    1.6406 H         1 <0>         0.4360
     50 H20         5.2548    3.7242   -0.0178 H         1 <0>         0.1354
     51 H21         6.5221    2.6014   -0.5770 H         1 <0>         0.1405
     52 H22         5.0966    0.6799   -0.1979 H         1 <0>         0.1078
     53 H23         4.1389    1.8692   -1.1120 H         1 <0>         0.1256
     54 H24         6.3964    1.6118    1.6676 H         1 <0>         0.4314
@<TRIPOS>BOND
     1    1    6 ar
     2    1    2 ar
     3    1   33 1
     4    2    3 ar
     5    2   34 1
     6    3    4 ar
     7    3   27 1
     8    4    5 ar
     9    4   35 1
    10    5    6 ar
    11    5   36 1
    12    6    7 1
    13    7    8 1
    14    7   18 1
    15    7    9 1
    16    9   10 1
    17    9   11 1
    18    9   20 1
    19   11   12 1
    20   12   17 ar
    21   12   13 ar
    22   13   14 ar
    23   13   37 1
    24   14   15 ar
    25   14   19 1
    26   15   16 ar
    27   15   38 1
    28   16   17 ar
    29   16   39 1
    30   17   18 1
    31   19   40 1
    32   20   25 ar
    33   20   21 ar
    34   21   22 ar
    35   21   41 1
    36   22   23 ar
    37   22   42 1
    38   23   24 ar
    39   23   26 1
    40   24   25 ar
    41   24   43 1
    42   25   44 1
    43   26   45 1
    44   27   32 1
    45   27   28 2
    46   28   29 1
    47   28   46 1
    48   29   30 1
    49   29   47 1
    50   29   48 1
    51   30   31 1
    52   30   49 1
    53   30   54 1
    54   31   32 1
    55   31   50 1
    56   31   51 1
    57   32   52 1
    58   32   53 1
@<TRIPOS>MOLECULE
CHEMBL155510
   71    75     0     0     0
SMALL
USER_CHARGES

@<TRIPOS>ATOM
      1 C1         -0.0178    1.4608    0.0101 C.3       1 <0>         0.0501
      2 N1          0.0021   -0.0041    0.0020 N.pl3     1 <0>        -0.5399
      3 C2          0.0241   -0.7433    1.2666 C.3       1 <0>         0.1112
      4 C3         -1.4105   -1.0203    1.7205 C.3       1 <0>        -0.1319
      5 C4         -1.3875   -1.7923    3.0413 C.3       1 <0>        -0.0687
      6 C5         -2.8005   -2.0651    3.4884 C.ar      1 <0>        -0.0861
      7 C6         -3.4577   -1.1530    4.2931 C.ar      1 <0>        -0.1015
      8 C7         -4.7541   -1.3985    4.7054 C.ar      1 <0>        -0.0947
      9 C8         -5.3981   -2.5607    4.3130 C.ar      1 <0>         0.0385
     10 C9         -4.7361   -3.4796    3.5024 C.ar      1 <0>         0.0322
     11 C10        -3.4389   -3.2242    3.0883 C.ar      1 <0>        -0.1004
     12 O1         -5.5742   -4.5289    3.2579 O.3       1 <0>        -0.3128
     13 C11        -6.6061   -4.4378    4.2580 C.3       1 <0>         0.2130
     14 O2         -6.6509   -3.0343    4.5762 O.3       1 <0>        -0.3041
     15 C12         0.0000   -0.6876   -1.1969 C.ar      1 <0>         0.6881
     16 N2         -0.0145   -0.0167   -2.3446 N.ar      1 <0>        -0.6343
     17 C13        -0.0165   -0.6751   -3.4993 C.ar      1 <0>         0.7001
     18 N3         -0.0039   -2.0045   -3.5066 N.ar      1 <0>        -0.6261
     19 C14         0.0110   -2.6753   -2.3592 C.ar      1 <0>         0.6916
     20 N4          0.0180   -2.0167   -1.2042 N.ar      1 <0>        -0.6198
     21 N5          0.0236   -4.0553   -2.3667 N.pl3     1 <0>        -0.5681
     22 C15         0.0340   -4.8185   -1.1091 C.3       1 <0>         0.0924
     23 C16        -1.0770   -5.8719   -1.1711 C.3       1 <0>        -0.0231
     24 N6         -0.9073   -6.6905   -2.3782 N.4       1 <0>        -0.5087
     25 C17        -1.0843   -5.8589   -3.5753 C.3       1 <0>        -0.0217
     26 C18         0.0207   -4.8048   -3.6325 C.3       1 <0>         0.0920
     27 N7         -0.0320    0.0214   -4.6907 N.pl3     1 <0>        -0.6497
     28 C19        -0.0463    1.4863   -4.6827 C.3       1 <0>         0.0875
     29 C20        -0.0619    2.0041   -6.1224 C.3       1 <0>        -0.0828
     30 C21        -0.0766    3.5110   -6.1141 C.ar      1 <0>        -0.1181
     31 C22        -1.2813    4.1893   -6.0959 C.ar      1 <0>        -0.0932
     32 C23        -1.2975    5.5706   -6.0887 C.ar      1 <0>        -0.1428
     33 C24        -0.1036    6.2772   -6.0994 C.ar      1 <0>         0.1242
     34 C25         1.1038    5.5943   -6.1173 C.ar      1 <0>        -0.1424
     35 C26         1.1146    4.2128   -6.1191 C.ar      1 <0>        -0.0928
     36 O3         -0.1169    7.6362   -6.0929 O.3       1 <0>        -0.4957
     37 H1          1.0048    1.8381    0.0023 H         1 <0>         0.0970
     38 H2         -0.5450    1.8219   -0.8730 H         1 <0>         0.0762
     39 H3         -0.5280    1.8123    0.9069 H         1 <0>         0.1201
     40 H4          0.5496   -1.6879    1.1262 H         1 <0>         0.1072
     41 H5          0.5371   -0.1514    2.0246 H         1 <0>         0.1111
     42 H6         -1.9359   -0.0757    1.8610 H         1 <0>         0.0768
     43 H7         -1.9235   -1.6122    0.9626 H         1 <0>         0.0703
     44 H8         -0.8620   -2.7369    2.9008 H         1 <0>         0.0793
     45 H9         -0.8745   -1.2004    3.7993 H         1 <0>         0.0865
     46 H10        -2.9569   -0.2468    4.6005 H         1 <0>         0.1398
     47 H11        -5.2650   -0.6842    5.3339 H         1 <0>         0.1412
     48 H12        -2.9247   -3.9329    2.4560 H         1 <0>         0.1273
     49 H13        -7.5623   -4.7695    3.8531 H         1 <0>         0.1375
     50 H14        -6.3387   -5.0219    5.1386 H         1 <0>         0.0913
     51 H15         0.9990   -5.3106   -0.9873 H         1 <0>         0.1131
     52 H16        -0.1457   -4.1455   -0.2707 H         1 <0>         0.1475
     53 H17        -1.0226   -6.5098   -0.2888 H         1 <0>         0.1582
     54 H18        -2.0470   -5.3758   -1.2018 H         1 <0>         0.1389
     55 H19         0.0182   -7.0924   -2.3832 H         1 <0>         0.4332
     56 H20        -1.0353   -6.4871   -4.4648 H         1 <0>         0.1585
     57 H21        -2.0541   -5.3631   -3.5333 H         1 <0>         0.1384
     58 H22        -0.1678   -4.1228   -4.4616 H         1 <0>         0.1479
     59 H23         0.9842   -5.2955   -3.7698 H         1 <0>         0.1125
     60 H24        -0.0334   -0.4590   -5.5334 H         1 <0>         0.4465
     61 H25        -0.9360    1.8381   -4.1604 H         1 <0>         0.0921
     62 H26         0.8438    1.8556   -4.1734 H         1 <0>         0.0930
     63 H27         0.8278    1.6523   -6.6447 H         1 <0>         0.0942
     64 H28        -0.9520    1.6348   -6.6317 H         1 <0>         0.0937
     65 H29        -2.2104    3.6388   -6.0876 H         1 <0>         0.1279
     66 H30        -2.2387    6.1000   -6.0752 H         1 <0>         0.1355
     67 H31         2.0345    6.1421   -6.1256 H         1 <0>         0.1357
     68 H32         2.0544    3.6807   -6.1285 H         1 <0>         0.1284
     69 H33        -0.1104    8.0253   -5.2077 H         1 <0>         0.3984
     70 H34        -0.0240    0.9532   -2.3393 H         1 <0>         0.4407
     71 H35        -1.5928   -7.4309   -2.3801 H         1 <0>         0.4427
@<TRIPOS>BOND
     1    1    2 1
     2    1   37 1
     3    1   38 1
     4    1   39 1
     5    2    3 1
     6    2   15 1
     7    3    4 1
     8    3   40 1
     9    3   41 1
    10    4    5 1
    11    4   42 1
    12    4   43 1
    13    5    6 1
    14    5   44 1
    15    5   45 1
    16    6   11 ar
    17    6    7 ar
    18    7    8 ar
    19    7   46 1
    20    8    9 ar
    21    8   47 1
    22    9   14 1
    23    9   10 ar
    24   10   11 ar
    25   10   12 1
    26   11   48 1
    27   12   13 1
    28   13   14 1
    29   13   49 1
    30   13   50 1
    31   15   20 ar
    32   15   16 ar
    33   16   17 ar
    34   16   70 1
    35   17   18 ar
    36   17   27 1
    37   18   19 ar
    38   19   20 ar
    39   19   21 1
    40   21   26 1
    41   21   22 1
    42   22   23 1
    43   22   51 1
    44   22   52 1
    45   23   24 1
    46   23   53 1
    47   23   54 1
    48   24   25 1
    49   24   55 1
    50   24   71 1
    51   25   26 1
    52   25   56 1
    53   25   57 1
    54   26   58 1
    55   26   59 1
    56   27   28 1
    57   27   60 1
    58   28   29 1
    59   28   61 1
    60   28   62 1
    61   29   30 1
    62   29   63 1
    63   29   64 1
    64   30   35 ar
    65   30   31 ar
    66   31   32 ar
    67   31   65 1
    68   32   33 ar
    69   32   66 1
    70   33   34 ar
    71   33   36 1
    72   34   35 ar
    73   34   67 1
    74   35   68 1
    75   36   69 1
@<TRIPOS>MOLECULE
CHEMBL155510__1
   70    74     0     0     0
SMALL
USER_CHARGES

@<TRIPOS>ATOM
      1 C1         -0.0178    1.4608    0.0101 C.3       1 <0>         0.0991
      2 N1          0.0021   -0.0041    0.0020 N.pl3     1 <0>        -0.5705
      3 C2          0.0241   -0.7433    1.2666 C.3       1 <0>         0.1277
      4 C3         -1.4105   -1.0203    1.7205 C.3       1 <0>        -0.1269
      5 C4         -1.3875   -1.7923    3.0413 C.3       1 <0>        -0.0716
      6 C5         -2.8005   -2.0651    3.4884 C.ar      1 <0>        -0.0735
      7 C6         -3.4577   -1.1530    4.2931 C.ar      1 <0>        -0.1064
      8 C7         -4.7541   -1.3985    4.7054 C.ar      1 <0>        -0.0973
      9 C8         -5.3981   -2.5607    4.3130 C.ar      1 <0>         0.0287
     10 C9         -4.7361   -3.4796    3.5024 C.ar      1 <0>         0.0346
     11 C10        -3.4389   -3.2242    3.0883 C.ar      1 <0>        -0.0968
     12 O1         -5.5742   -4.5289    3.2579 O.3       1 <0>        -0.3094
     13 C11        -6.6061   -4.4378    4.2580 C.3       1 <0>         0.2129
     14 O2         -6.6509   -3.0343    4.5762 O.3       1 <0>        -0.3083
     15 C12         0.0000   -0.6876   -1.1969 C.ar      1 <0>         0.6578
     16 N2          0.0126   -2.0171   -1.2042 N.ar      1 <0>        -0.6584
     17 C13         0.0106   -2.6754   -2.3589 C.ar      1 <0>         0.6589
     18 N3         -0.0039   -2.0045   -3.5066 N.ar      1 <0>        -0.6817
     19 C14        -0.0169   -0.6754   -3.4993 C.ar      1 <0>         0.6545
     20 N4         -0.0200   -0.0169   -2.3443 N.ar      1 <0>        -0.6773
     21 N5         -0.0315    0.0211   -4.6907 N.pl3     1 <0>        -0.5987
     22 C15        -0.0398    1.4921   -4.7069 C.3       1 <0>         0.1065
     23 C16         1.0694    1.9737   -5.6479 C.3       1 <0>        -0.0217
     24 N6          0.8954    1.3521   -6.9667 N.4       1 <0>        -0.5057
     25 C17         1.0705   -0.1019   -6.8613 C.3       1 <0>        -0.0213
     26 C18        -0.0330   -0.6864   -5.9805 C.3       1 <0>         0.1057
     27 N7          0.0241   -4.0554   -2.3664 N.pl3     1 <0>        -0.6825
     28 C19         0.0405   -4.7947   -1.1018 C.3       1 <0>         0.1414
     29 C20         0.0532   -6.2974   -1.3895 C.3       1 <0>        -0.0913
     30 C21         0.0701   -7.0579   -0.0886 C.ar      1 <0>        -0.0960
     31 C22         1.2759   -7.3895    0.5013 C.ar      1 <0>        -0.0950
     32 C23         1.2941   -8.0869    1.6936 C.ar      1 <0>        -0.1431
     33 C24         0.1013   -8.4543    2.2993 C.ar      1 <0>         0.1097
     34 C25        -1.1072   -8.1200    1.7056 C.ar      1 <0>        -0.1418
     35 C26        -1.1201   -7.4179    0.5159 C.ar      1 <0>        -0.0942
     36 O3          0.1166   -9.1409    3.4720 O.3       1 <0>        -0.4992
     37 H1          1.0048    1.8381    0.0023 H         1 <0>         0.0561
     38 H2         -0.5450    1.8219   -0.8730 H         1 <0>         0.0786
     39 H3         -0.5280    1.8123    0.9069 H         1 <0>         0.0751
     40 H4          0.5496   -1.6879    1.1262 H         1 <0>         0.0924
     41 H5          0.5371   -0.1514    2.0246 H         1 <0>         0.0833
     42 H6         -1.9359   -0.0757    1.8610 H         1 <0>         0.0657
     43 H7         -1.9235   -1.6122    0.9626 H         1 <0>         0.0685
     44 H8         -0.8620   -2.7369    2.9008 H         1 <0>         0.0786
     45 H9         -0.8745   -1.2004    3.7993 H         1 <0>         0.0799
     46 H10        -2.9569   -0.2468    4.6005 H         1 <0>         0.1378
     47 H11        -5.2650   -0.6842    5.3339 H         1 <0>         0.1368
     48 H12        -2.9247   -3.9329    2.4560 H         1 <0>         0.1328
     49 H13        -7.5623   -4.7695    3.8531 H         1 <0>         0.1337
     50 H14        -6.3387   -5.0219    5.1386 H         1 <0>         0.0869
     51 H15        -1.0052    1.8490   -5.0659 H         1 <0>         0.0925
     52 H16         0.1430    1.8705   -3.7012 H         1 <0>         0.1412
     53 H17         1.0164    3.0579   -5.7472 H         1 <0>         0.1469
     54 H18         2.0401    1.6931   -5.2391 H         1 <0>         0.1338
     55 H19        -0.0307    1.5539   -7.3127 H         1 <0>         0.4288
     56 H20         1.0183   -0.5473   -7.8548 H         1 <0>         0.1472
     57 H21         2.0412   -0.3197   -6.4158 H         1 <0>         0.1337
     58 H22         0.1544   -1.7476   -5.8164 H         1 <0>         0.1418
     59 H23        -0.9976   -0.5532   -6.4702 H         1 <0>         0.0920
     60 H24         0.0226   -4.5359   -3.2091 H         1 <0>         0.4163
     61 H25         0.9321   -4.5258   -0.5353 H         1 <0>         0.0737
     62 H26        -0.8477   -4.5432   -0.5223 H         1 <0>         0.0740
     63 H27        -0.8384   -6.5663   -1.9560 H         1 <0>         0.0814
     64 H28         0.9415   -6.5489   -1.9690 H         1 <0>         0.0812
     65 H29         2.2042   -7.1033    0.0294 H         1 <0>         0.1264
     66 H30         2.2362   -8.3464    2.1536 H         1 <0>         0.1304
     67 H31        -2.0371   -8.4048    2.1752 H         1 <0>         0.1302
     68 H32        -2.0606   -7.1535    0.0556 H         1 <0>         0.1265
     69 H33         0.1129   -8.5773    4.2578 H         1 <0>         0.3934
     70 H34         1.5798    1.7266   -7.6066 H         1 <0>         0.4336
@<TRIPOS>BOND
     1    1    2 1
     2    1   37 1
     3    1   38 1
     4    1   39 1
     5    2    3 1
     6    2   15 1
     7    3    4 1
     8    3   40 1
     9    3   41 1
    10    4    5 1
    11    4   42 1
    12    4   43 1
    13    5    6 1
    14    5   44 1
    15    5   45 1
    16    6   11 ar
    17    6    7 ar
    18    7    8 ar
    19    7   46 1
    20    8    9 ar
    21    8   47 1
    22    9   14 1
    23    9   10 ar
    24   10   11 ar
    25   10   12 1
    26   11   48 1
    27   12   13 1
    28   13   14 1
    29   13   49 1
    30   13   50 1
    31   15   20 ar
    32   15   16 ar
    33   16   17 ar
    34   17   18 ar
    35   17   27 1
    36   18   19 ar
    37   19   20 ar
    38   19   21 1
    39   21   26 1
    40   21   22 1
    41   22   23 1
    42   22   51 1
    43   22   52 1
    44   23   24 1
    45   23   53 1
    46   23   54 1
    47   24   25 1
    48   24   55 1
    49   24   70 1
    50   25   26 1
    51   25   56 1
    52   25   57 1
    53   26   58 1
    54   26   59 1
    55   27   28 1
    56   27   60 1
    57   28   29 1
    58   28   61 1
    59   28   62 1
    60   29   30 1
    61   29   63 1
    62   29   64 1
    63   30   35 ar
    64   30   31 ar
    65   31   32 ar
    66   31   65 1
    67   32   33 ar
    68   32   66 1
    69   33   34 ar
    70   33   36 1
    71   34   35 ar
    72   34   67 1
    73   35   68 1
    74   36   69 1
@<TRIPOS>MOLECULE
CHEMBL195311
   30    32     0     0     0
SMALL
USER_CHARGES

@<TRIPOS>ATOM
      1 C1         -0.0170    1.4023    0.0098 C.ar      1 <0>        -0.1067
      2 C2          1.1501    2.0971    0.0023 C.ar      1 <0>        -0.0875
      3 C3          2.3855    1.4300   -0.0135 C.ar      1 <0>        -0.0501
      4 C4          2.4382    0.0483   -0.0218 C.ar      1 <0>        -0.0813
      5 C5          1.2443   -0.6884   -0.0140 C.ar      1 <0>        -0.0608
      6 C6          0.0021   -0.0041    0.0020 C.ar      1 <0>        -0.0303
      7 C7         -1.1913   -0.7445    0.0089 C.ar      1 <0>        -0.1375
      8 C8         -1.1404   -2.1094    0.0007 C.ar      1 <0>         0.1133
      9 C9          0.0856   -2.7821   -0.0141 C.ar      1 <0>        -0.1403
     10 C10         1.2590   -2.0952   -0.0226 C.ar      1 <0>        -0.0853
     11 O1         -2.2966   -2.8233    0.0074 O.3       1 <0>        -0.5001
     12 C11         3.6443    2.2139   -0.0218 C.ar      1 <0>        -0.0477
     13 C12         4.6587    1.9163    0.8871 C.ar      1 <0>        -0.0779
     14 C13         5.8280    2.6469    0.8770 C.ar      1 <0>        -0.1377
     15 C14         5.9964    3.6789   -0.0367 C.ar      1 <0>         0.1222
     16 C15         4.9892    3.9786   -0.9433 C.ar      1 <0>        -0.1362
     17 C16         3.8185    3.2470   -0.9428 C.ar      1 <0>        -0.0098
     18 Cl1         2.5616    3.6174   -2.0815 Cl        1 <0>        -0.0526
     19 O2          7.1498    4.3972   -0.0430 O.3       1 <0>        -0.4936
     20 H1         -0.9594    1.9296    0.0261 H         1 <0>         0.1311
     21 H2          1.1275    3.1769    0.0083 H         1 <0>         0.1270
     22 H3          3.3911   -0.4599   -0.0347 H         1 <0>         0.1315
     23 H4         -2.1446   -0.2371    0.0211 H         1 <0>         0.1345
     24 H5          0.1006   -3.8620   -0.0201 H         1 <0>         0.1312
     25 H6          2.1987   -2.6274   -0.0354 H         1 <0>         0.1334
     26 H7         -2.6395   -3.0249   -0.8740 H         1 <0>         0.3927
     27 H8          4.5286    1.1143    1.5987 H         1 <0>         0.1401
     28 H9          6.6139    2.4164    1.5811 H         1 <0>         0.1393
     29 H10         5.1232    4.7818   -1.6527 H         1 <0>         0.1428
     30 H11         7.8347    4.0364   -0.6225 H         1 <0>         0.3962
@<TRIPOS>BOND
     1    1    6 ar
     2    1    2 ar
     3    1   20 1
     4    2    3 ar
     5    2   21 1
     6    3    4 ar
     7    3   12 1
     8    4    5 ar
     9    4   22 1
    10    5   10 ar
    11    5    6 ar
    12    6    7 ar
    13    7    8 ar
    14    7   23 1
    15    8    9 ar
    16    8   11 1
    17    9   10 ar
    18    9   24 1
    19   10   25 1
    20   11   26 1
    21   12   17 ar
    22   12   13 ar
    23   13   14 ar
    24   13   27 1
    25   14   15 ar
    26   14   28 1
    27   15   16 ar
    28   15   19 1
    29   16   17 ar
    30   16   29 1
    31   17   18 1
    32   19   30 1
@<TRIPOS>MOLECULE
CHEMBL95938
   38    41     0     0     0
SMALL
USER_CHARGES

@<TRIPOS>ATOM
      1 C1         -0.0077    1.4010    0.0041 C.ar      1 <0>        -0.1083
      2 C2          1.1841    2.1038   -0.0124 C.ar      1 <0>        -0.1181
      3 C3          2.3868    1.4282   -0.0235 C.ar      1 <0>        -0.0732
      4 C4          2.3996    0.0323   -0.0175 C.ar      1 <0>        -0.0355
      5 C5          1.1937   -0.6706   -0.0003 C.ar      1 <0>        -0.0966
      6 C6         -0.0020    0.0173    0.0101 C.ar      1 <0>        -0.1213
      7 C7          3.6853   -0.6987   -0.0297 C.2       1 <0>        -0.0273
      8 C8          4.2026   -1.5675   -1.0955 C.ar      1 <0>        -0.1417
      9 C9          3.7140   -1.9680   -2.3406 C.ar      1 <0>        -0.0360
     10 C10         4.4539   -2.8084   -3.1219 C.ar      1 <0>        -0.1586
     11 C11         5.6938   -3.2683   -2.6823 C.ar      1 <0>         0.1517
     12 C12         6.1925   -2.8810   -1.4511 C.ar      1 <0>        -0.1438
     13 C13         5.4531   -2.0260   -0.6434 C.ar      1 <0>         0.0896
     14 O1          5.6795   -1.4934    0.5740 O.3       1 <0>        -0.1718
     15 C14         4.6559   -0.7022    0.9588 C.2       1 <0>        -0.0429
     16 C15         4.5817    0.0325    2.2205 C.2       1 <0>         0.4657
     17 O2          3.6509    0.7891    2.4308 O.2       1 <0>        -0.3917
     18 C16         5.6366   -0.1431    3.2410 C.ar      1 <0>        -0.1606
     19 C17         6.7658   -0.9143    2.9574 C.ar      1 <0>        -0.0589
     20 C18         7.7463   -1.0737    3.9137 C.ar      1 <0>        -0.1288
     21 C19         7.6139   -0.4718    5.1534 C.ar      1 <0>        -0.0709
     22 C20         6.4986    0.2931    5.4425 C.ar      1 <0>        -0.1262
     23 C21         5.5114    0.4666    4.4922 C.ar      1 <0>         0.0167
     24 Cl1         4.1152    1.4329    4.8538 Cl        1 <0>        -0.0318
     25 O3          6.4189   -4.1046   -3.4692 O.3       1 <0>        -0.4905
     26 H1         -0.9465    1.9347    0.0168 H         1 <0>         0.1239
     27 H2          1.1727    3.1838   -0.0171 H         1 <0>         0.1254
     28 H3          3.3163    1.9780   -0.0371 H         1 <0>         0.1195
     29 H4          1.1968   -1.7506    0.0040 H         1 <0>         0.1222
     30 H5         -0.9357   -0.5253    0.0234 H         1 <0>         0.1257
     31 H6          2.7533   -1.6144   -2.6846 H         1 <0>         0.1374
     32 H7          4.0764   -3.1185   -4.0850 H         1 <0>         0.1416
     33 H8          7.1543   -3.2428   -1.1185 H         1 <0>         0.1441
     34 H9          6.8708   -1.3853    1.9912 H         1 <0>         0.1522
     35 H10         8.6199   -1.6699    3.6951 H         1 <0>         0.1380
     36 H11         8.3851   -0.6006    5.8984 H         1 <0>         0.1398
     37 H12         6.4014    0.7592    6.4119 H         1 <0>         0.1424
     38 H13         7.0210   -3.6512   -4.0751 H         1 <0>         0.3988
@<TRIPOS>BOND
     1    1    6 ar
     2    1    2 ar
     3    1   26 1
     4    2    3 ar
     5    2   27 1
     6    3    4 ar
     7    3   28 1
     8    4    5 ar
     9    4    7 1
    10    5    6 ar
    11    5   29 1
    12    6   30 1
    13    7   15 2
    14    7    8 1
    15    8   13 ar
    16    8    9 ar
    17    9   10 ar
    18    9   31 1
    19   10   11 ar
    20   10   32 1
    21   11   12 ar
    22   11   25 1
    23   12   13 ar
    24   12   33 1
    25   13   14 1
    26   14   15 1
    27   15   16 1
    28   16   17 2
    29   16   18 1
    30   18   23 ar
    31   18   19 ar
    32   19   20 ar
    33   19   34 1
    34   20   21 ar
    35   20   35 1
    36   21   22 ar
    37   21   36 1
    38   22   23 ar
    39   22   37 1
    40   23   24 1
    41   25   38 1
@<TRIPOS>MOLECULE
CHEMBL58688
   69    73     0     0     0
SMALL
USER_CHARGES

@<TRIPOS>ATOM
      1 C1          4.6476    6.1330   -4.2977 C.ar      1 <0>        -0.0997
      2 C2          4.7317    5.2656   -3.2239 C.ar      1 <0>        -0.1119
      3 C3          4.6369    5.7494   -1.9324 C.ar      1 <0>        -0.0771
      4 C4          4.4573    7.1014   -1.7114 C.ar      1 <0>        -0.1335
      5 C5          4.3726    7.9735   -2.7867 C.ar      1 <0>         0.1044
      6 C6          4.4685    7.4854   -4.0820 C.ar      1 <0>        -0.1382
      7 O1          4.1960    9.3038   -2.5719 O.3       1 <0>        -0.5014
      8 C7          4.7290    4.8014   -0.7646 C.3       1 <0>         0.2016
      9 C8          6.1077    4.1282   -0.7492 C.3       1 <0>        -0.1284
     10 C9          6.2031    3.2262    0.4811 C.3       1 <0>        -0.0732
     11 C10         5.0152    2.3032    0.5519 C.ar      1 <0>        -0.1325
     12 C11         5.1107    1.1465    1.3079 C.ar      1 <0>        -0.0995
     13 C12         4.0345    0.2785    1.3953 C.ar      1 <0>         0.0561
     14 C13         2.8546    0.5654    0.7244 C.ar      1 <0>        -0.1028
     15 C14         2.7561    1.7166   -0.0306 C.ar      1 <0>        -0.1794
     16 C15         3.8367    2.5869   -0.1196 C.ar      1 <0>         0.2117
     17 N1          3.7158    3.7459   -0.8993 N.pl3     1 <0>        -0.6178
     18 C16         2.5975    3.9021   -1.8326 C.3       1 <0>         0.1515
     19 C17         1.5016    4.7001   -1.1744 C.ar      1 <0>        -0.1216
     20 C18         0.5712    4.0646   -0.3730 C.ar      1 <0>        -0.0672
     21 C19        -0.4347    4.7938    0.2312 C.ar      1 <0>        -0.1416
     22 C20        -0.5104    6.1649    0.0337 C.ar      1 <0>         0.1139
     23 C21         0.4246    6.8002   -0.7705 C.ar      1 <0>        -0.2008
     24 C22         1.4316    6.0673   -1.3682 C.ar      1 <0>        -0.0635
     25 O2         -1.4992    6.8843    0.6266 O.3       1 <0>        -0.3295
     26 C23        -1.5155    8.2916    0.3788 C.3       1 <0>         0.0263
     27 C24        -2.6909    8.9271    1.1241 C.3       1 <0>        -0.0005
     28 N2         -2.5113    8.7421    2.5703 N.4       1 <0>        -0.3838
     29 C25        -3.7144    9.2021    3.2741 C.3       1 <0>        -0.0072
     30 C26        -3.5654    8.9370    4.7738 C.3       1 <0>        -0.1466
     31 C27        -2.3428    9.6935    5.3013 C.3       1 <0>        -0.1388
     32 C28        -1.1058    9.2599    4.5096 C.3       1 <0>        -0.1452
     33 C29        -1.3459    9.5130    3.0197 C.3       1 <0>        -0.0128
     34 O3          4.1349   -0.8558    2.1389 O.3       1 <0>        -0.4977
     35 H1          4.7265    5.7531   -5.3056 H         1 <0>         0.1325
     36 H2          4.8714    4.2083   -3.3946 H         1 <0>         0.1296
     37 H3          4.3826    7.4788   -0.7022 H         1 <0>         0.1271
     38 H4          4.4032    8.1625   -4.9209 H         1 <0>         0.1316
     39 H5          5.0208    9.8014   -2.4874 H         1 <0>         0.3948
     40 H6          4.5729    5.3463    0.1664 H         1 <0>         0.0735
     41 H7          6.2319    3.5295   -1.6515 H         1 <0>         0.0762
     42 H8          6.8857    4.8903   -0.7044 H         1 <0>         0.0816
     43 H9          7.1161    2.6337    0.4228 H         1 <0>         0.0816
     44 H10         6.2326    3.8440    1.3786 H         1 <0>         0.0739
     45 H11         6.0280    0.9201    1.8311 H         1 <0>         0.1282
     46 H12         2.0149   -0.1103    0.7931 H         1 <0>         0.1278
     47 H13         1.8383    1.9414   -0.5536 H         1 <0>         0.1266
     48 H14         2.9401    4.4238   -2.7263 H         1 <0>         0.0954
     49 H15         2.2153    2.9196   -2.1095 H         1 <0>         0.0876
     50 H16         0.6306    2.9972   -0.2195 H         1 <0>         0.1365
     51 H17        -1.1616    4.2968    0.8565 H         1 <0>         0.1317
     52 H18         0.3677    7.8675   -0.9258 H         1 <0>         0.1257
     53 H19         2.1623    6.5621   -1.9908 H         1 <0>         0.1313
     54 H20        -0.5822    8.7329    0.7284 H         1 <0>         0.0855
     55 H21        -1.6240    8.4709   -0.6909 H         1 <0>         0.1088
     56 H22        -2.7323    9.9923    0.8965 H         1 <0>         0.1486
     57 H23        -3.6202    8.4520    0.8097 H         1 <0>         0.1423
     58 H24        -3.8468   10.2709    3.1059 H         1 <0>         0.1291
     59 H25        -4.5841    8.6652    2.8953 H         1 <0>         0.1310
     60 H26        -4.4589    9.2810    5.2947 H         1 <0>         0.1131
     61 H27        -3.4332    7.8684    4.9431 H         1 <0>         0.0878
     62 H28        -2.4967   10.7656    5.1788 H         1 <0>         0.0821
     63 H29        -2.1992    9.4630    6.3570 H         1 <0>         0.0947
     64 H30        -0.2412    9.8346    4.8417 H         1 <0>         0.1120
     65 H31        -0.9225    8.1980    4.6734 H         1 <0>         0.0876
     66 H32        -0.4670    9.2056    2.4531 H         1 <0>         0.1268
     67 H33        -1.5288   10.5752    2.8569 H         1 <0>         0.1301
     68 H34         3.8682   -0.7459    3.0619 H         1 <0>         0.3846
     69 H35        -2.3623    7.7637    2.7672 H         1 <0>         0.4295
@<TRIPOS>BOND
     1    1    6 ar
     2    1    2 ar
     3    1   35 1
     4    2    3 ar
     5    2   36 1
     6    3    4 ar
     7    3    8 1
     8    4    5 ar
     9    4   37 1
    10    5    6 ar
    11    5    7 1
    12    6   38 1
    13    7   39 1
    14    8   17 1
    15    8    9 1
    16    8   40 1
    17    9   10 1
    18    9   41 1
    19    9   42 1
    20   10   11 1
    21   10   43 1
    22   10   44 1
    23   11   16 ar
    24   11   12 ar
    25   12   13 ar
    26   12   45 1
    27   13   14 ar
    28   13   34 1
    29   14   15 ar
    30   14   46 1
    31   15   16 ar
    32   15   47 1
    33   16   17 1
    34   17   18 1
    35   18   19 1
    36   18   48 1
    37   18   49 1
    38   19   24 ar
    39   19   20 ar
    40   20   21 ar
    41   20   50 1
    42   21   22 ar
    43   21   51 1
    44   22   23 ar
    45   22   25 1
    46   23   24 ar
    47   23   52 1
    48   24   53 1
    49   25   26 1
    50   26   27 1
    51   26   54 1
    52   26   55 1
    53   27   28 1
    54   27   56 1
    55   27   57 1
    56   28   33 1
    57   28   29 1
    58   28   69 1
    59   29   30 1
    60   29   58 1
    61   29   59 1
    62   30   31 1
    63   30   60 1
    64   30   61 1
    65   31   32 1
    66   31   62 1
    67   31   63 1
    68   32   33 1
    69   32   64 1
    70   32   65 1
    71   33   66 1
    72   33   67 1
    73   34   68 1
@<TRIPOS>MOLECULE
CHEMBL58688__1
   69    73     0     0     0
SMALL
USER_CHARGES

@<TRIPOS>ATOM
      1 C1          0.3844    1.7044   -0.3534 C.ar      1 <0>        -0.0985
      2 C2          1.5709    2.4138   -0.3890 C.ar      1 <0>        -0.1126
      3 C3          2.7302    1.8519    0.1125 C.ar      1 <0>        -0.0788
      4 C4          2.7060    0.5794    0.6503 C.ar      1 <0>        -0.1371
      5 C5          1.5171   -0.1342    0.6871 C.ar      1 <0>         0.1077
      6 C6          0.3548    0.4322    0.1834 C.ar      1 <0>        -0.1374
      7 O1          1.4907   -1.3860    1.2154 O.3       1 <0>        -0.4953
      8 C7          4.0215    2.6278    0.0722 C.3       1 <0>         0.2004
      9 C8          4.3810    2.9632   -1.3811 C.3       1 <0>        -0.1285
     10 C9          5.7270    3.6873   -1.4023 C.3       1 <0>        -0.0741
     11 C10         5.7187    4.8446   -0.4386 C.ar      1 <0>        -0.1310
     12 C11         6.6404    5.8643   -0.6095 C.ar      1 <0>        -0.1000
     13 C12         6.6602    6.9411    0.2619 C.ar      1 <0>         0.0558
     14 C13         5.7548    7.0020    1.3112 C.ar      1 <0>        -0.1049
     15 C14         4.8343    5.9883    1.4841 C.ar      1 <0>        -0.1787
     16 C15         4.8134    4.9084    0.6086 C.ar      1 <0>         0.2118
     17 N1          3.8637    3.8947    0.7994 N.pl3     1 <0>        -0.6175
     18 C16         2.7326    4.0956    1.7084 C.3       1 <0>         0.1530
     19 C17         3.0917    3.5811    3.0786 C.ar      1 <0>        -0.1194
     20 C18         2.9521    2.2366    3.3694 C.ar      1 <0>        -0.0697
     21 C19         3.2802    1.7626    4.6248 C.ar      1 <0>        -0.1421
     22 C20         3.7506    2.6367    5.5940 C.ar      1 <0>         0.1143
     23 C21         3.8902    3.9852    5.2995 C.ar      1 <0>        -0.2007
     24 C22         3.5656    4.4534    4.0410 C.ar      1 <0>        -0.0664
     25 O2          4.0736    2.1729    6.8299 O.3       1 <0>        -0.3290
     26 C23         4.5514    3.1298    7.7775 C.3       1 <0>         0.0257
     27 C24         4.8610    2.4266    9.1006 C.3       1 <0>        -0.0005
     28 N2          5.9473    1.4587    8.8982 N.4       1 <0>        -0.3838
     29 C25         6.1581    0.6964   10.1347 C.3       1 <0>        -0.0071
     30 C26         7.2329   -0.3682    9.9051 C.3       1 <0>        -0.1466
     31 C27         8.5409    0.3148    9.4954 C.3       1 <0>        -0.1389
     32 C28         8.2914    1.1663    8.2472 C.3       1 <0>        -0.1453
     33 C29         7.1774    2.1741    8.5383 C.3       1 <0>        -0.0134
     34 O3          7.5674    7.9393    0.0883 O.3       1 <0>        -0.5000
     35 H1         -0.5208    2.1473   -0.7418 H         1 <0>         0.1324
     36 H2          1.5921    3.4083   -0.8095 H         1 <0>         0.1289
     37 H3          3.6120    0.1406    1.0413 H         1 <0>         0.1297
     38 H4         -0.5721   -0.1213    0.2112 H         1 <0>         0.1324
     39 H5          1.3038   -1.4087    2.1639 H         1 <0>         0.3901
     40 H6          4.8198    2.0394    0.5246 H         1 <0>         0.0749
     41 H7          4.4521    2.0433   -1.9614 H         1 <0>         0.0830
     42 H8          3.6127    3.6080   -1.8079 H         1 <0>         0.0761
     43 H9          6.5153    2.9896   -1.1197 H         1 <0>         0.0748
     44 H10         5.9199    4.0587   -2.4088 H         1 <0>         0.0817
     45 H11         7.3468    5.8196   -1.4252 H         1 <0>         0.1284
     46 H12         5.7700    7.8410    1.9911 H         1 <0>         0.1260
     47 H13         4.1292    6.0339    2.3009 H         1 <0>         0.1252
     48 H14         2.4996    5.1587    1.7691 H         1 <0>         0.0847
     49 H15         1.8642    3.5542    1.3331 H         1 <0>         0.0975
     50 H16         2.5859    1.5565    2.6146 H         1 <0>         0.1368
     51 H17         3.1703    0.7124    4.8517 H         1 <0>         0.1307
     52 H18         4.2561    4.6677    6.0523 H         1 <0>         0.1268
     53 H19         3.6783    5.5024    3.8099 H         1 <0>         0.1308
     54 H20         5.4577    3.5990    7.3946 H         1 <0>         0.0861
     55 H21         3.7890    3.8916    7.9406 H         1 <0>         0.1089
     56 H22         5.1659    3.1652    9.8419 H         1 <0>         0.1488
     57 H23         3.9706    1.9053    9.4520 H         1 <0>         0.1423
     58 H24         6.4800    1.3721   10.9271 H         1 <0>         0.1292
     59 H25         5.2255    0.2135   10.4268 H         1 <0>         0.1309
     60 H26         7.3893   -0.9319   10.8249 H         1 <0>         0.1132
     61 H27         6.9119   -1.0447    9.1130 H         1 <0>         0.0878
     62 H28         8.8892    0.9524   10.3080 H         1 <0>         0.0822
     63 H29         9.2941   -0.4419    9.2759 H         1 <0>         0.0948
     64 H30         9.2044    1.6995    7.9819 H         1 <0>         0.1124
     65 H31         7.9924    0.5217    7.4207 H         1 <0>         0.0876
     66 H32         6.9973    2.7821    7.6517 H         1 <0>         0.1272
     67 H33         7.4775    2.8183    9.3647 H         1 <0>         0.1303
     68 H34         7.2578    8.6578   -0.4800 H         1 <0>         0.3866
     69 H35         5.6976    0.8253    8.1535 H         1 <0>         0.4292
@<TRIPOS>BOND
     1    1    6 ar
     2    1    2 ar
     3    1   35 1
     4    2    3 ar
     5    2   36 1
     6    3    4 ar
     7    3    8 1
     8    4    5 ar
     9    4   37 1
    10    5    6 ar
    11    5    7 1
    12    6   38 1
    13    7   39 1
    14    8   17 1
    15    8    9 1
    16    8   40 1
    17    9   10 1
    18    9   41 1
    19    9   42 1
    20   10   11 1
    21   10   43 1
    22   10   44 1
    23   11   16 ar
    24   11   12 ar
    25   12   13 ar
    26   12   45 1
    27   13   14 ar
    28   13   34 1
    29   14   15 ar
    30   14   46 1
    31   15   16 ar
    32   15   47 1
    33   16   17 1
    34   17   18 1
    35   18   19 1
    36   18   48 1
    37   18   49 1
    38   19   24 ar
    39   19   20 ar
    40   20   21 ar
    41   20   50 1
    42   21   22 ar
    43   21   51 1
    44   22   23 ar
    45   22   25 1
    46   23   24 ar
    47   23   52 1
    48   24   53 1
    49   25   26 1
    50   26   27 1
    51   26   54 1
    52   26   55 1
    53   27   28 1
    54   27   56 1
    55   27   57 1
    56   28   33 1
    57   28   29 1
    58   28   69 1
    59   29   30 1
    60   29   58 1
    61   29   59 1
    62   30   31 1
    63   30   60 1
    64   30   61 1
    65   31   32 1
    66   31   62 1
    67   31   63 1
    68   32   33 1
    69   32   64 1
    70   32   65 1
    71   33   66 1
    72   33   67 1
    73   34   68 1
@<TRIPOS>MOLECULE
CHEMBL313941
   66    70     0     0     0
SMALL
USER_CHARGES

@<TRIPOS>ATOM
      1 C1         -0.0125    1.4506   -0.2146 C.ar      1 <0>        -0.0984
      2 C2          1.1707    2.1627   -0.1791 C.ar      1 <0>        -0.1485
      3 C3          2.3839    1.4940   -0.2558 C.ar      1 <0>         0.1098
      4 C4          2.4054    0.1114   -0.3680 C.ar      1 <0>        -0.1428
      5 C5          1.2193   -0.5960   -0.4031 C.ar      1 <0>        -0.0750
      6 C6          0.0116    0.0727   -0.3266 C.ar      1 <0>        -0.0998
      7 C7         -1.2807   -0.7016   -0.3647 C.3       1 <0>        -0.0694
      8 C8         -1.7454   -0.8474   -1.8151 C.3       1 <0>        -0.0999
      9 H1         -1.8183    0.1346   -2.2825 H         1 <0>         0.1319
     10 C9         -3.1111   -1.5528   -1.8603 C.3       1 <0>         0.1448
     11 H2         -3.3775   -1.7655   -2.8956 H         1 <0>         0.0934
     12 O1         -3.0294   -2.7683   -1.1318 O.3       1 <0>        -0.3098
     13 C10        -2.1535   -3.7457   -1.4634 C.ar      1 <0>         0.1184
     14 C11        -2.4550   -5.0450   -1.0619 C.ar      1 <0>        -0.1124
     15 C12        -1.5995   -6.0874   -1.3529 C.ar      1 <0>        -0.1092
     16 C13        -0.4236   -5.8522   -2.0503 C.ar      1 <0>         0.0989
     17 C14        -0.1158   -4.5649   -2.4595 C.ar      1 <0>        -0.0920
     18 C15        -0.9804   -3.5166   -2.1737 C.ar      1 <0>        -0.1416
     19 S1         -0.5750   -1.8905   -2.7405 S.3       1 <0>        -0.0872
     20 O2          0.4223   -6.8793   -2.3304 O.3       1 <0>        -0.4922
     21 C16        -4.1588   -0.6626   -1.2429 C.ar      1 <0>        -0.1021
     22 C17        -4.2766   -0.5869    0.1326 C.ar      1 <0>        -0.0487
     23 C18        -5.2365    0.2280    0.7010 C.ar      1 <0>        -0.1414
     24 C19        -6.0823    0.9710   -0.1096 C.ar      1 <0>         0.1233
     25 C20        -5.9618    0.8936   -1.4895 C.ar      1 <0>        -0.2008
     26 C21        -4.9969    0.0812   -2.0529 C.ar      1 <0>        -0.0584
     27 O3         -7.0277    1.7730    0.4471 O.3       1 <0>        -0.3270
     28 C22        -7.8634    2.5090   -0.4485 C.3       1 <0>         0.0249
     29 C23        -8.8580    3.3485    0.3557 C.3       1 <0>        -0.0010
     30 N1         -8.1273    4.3423    1.1535 N.4       1 <0>        -0.3842
     31 C24        -9.0653    5.0414    2.0399 C.3       1 <0>        -0.0072
     32 C25        -8.2978    6.0206    2.9307 C.3       1 <0>        -0.1467
     33 C26        -7.5692    7.0398    2.0501 C.3       1 <0>        -0.1391
     34 C27        -6.6488    6.2949    1.0789 C.3       1 <0>        -0.1454
     35 C28        -7.4774    5.3056    0.2567 C.3       1 <0>        -0.0131
     36 O4          3.5493    2.1923   -0.2214 O.3       1 <0>        -0.4996
     37 H3         -0.9571    1.9703   -0.1505 H         1 <0>         0.1205
     38 H4          1.1514    3.2390   -0.0921 H         1 <0>         0.1273
     39 H5          3.3485   -0.4113   -0.4282 H         1 <0>         0.1309
     40 H6          1.2355   -1.6724   -0.4904 H         1 <0>         0.1283
     41 H7         -1.1250   -1.6899    0.0680 H         1 <0>         0.0817
     42 H8         -2.0401   -0.1696    0.2084 H         1 <0>         0.0883
     43 H9         -3.3676   -5.2383   -0.5176 H         1 <0>         0.1398
     44 H10        -1.8459   -7.0902   -1.0363 H         1 <0>         0.1417
     45 H11         0.7987   -4.3764   -3.0023 H         1 <0>         0.1391
     46 H12         0.2432   -7.3176   -3.1735 H         1 <0>         0.3942
     47 H13        -3.6179   -1.1655    0.7633 H         1 <0>         0.1428
     48 H14        -5.3286    0.2863    1.7755 H         1 <0>         0.1370
     49 H15        -6.6191    1.4710   -2.1227 H         1 <0>         0.1320
     50 H16        -4.8997    0.0239   -3.1270 H         1 <0>         0.1352
     51 H17        -7.2476    3.1653   -1.0635 H         1 <0>         0.0872
     52 H18        -8.4079    1.8158   -1.0897 H         1 <0>         0.1104
     53 H19        -9.5377    3.8590   -0.3266 H         1 <0>         0.1494
     54 H20        -9.4290    2.6988    1.0189 H         1 <0>         0.1430
     55 H21        -9.7917    5.5896    1.4399 H         1 <0>         0.1293
     56 H22        -9.5854    4.3145    2.6638 H         1 <0>         0.1312
     57 H23        -8.9962    6.5400    3.5869 H         1 <0>         0.1133
     58 H24        -7.5713    5.4735    3.5315 H         1 <0>         0.0880
     59 H25        -8.2984    7.6223    1.4870 H         1 <0>         0.0822
     60 H26        -6.9755    7.7050    2.6772 H         1 <0>         0.0949
     61 H27        -6.1685    7.0104    0.4113 H         1 <0>         0.1124
     62 H28        -5.8880    5.7534    1.6412 H         1 <0>         0.0878
     63 H29        -6.8252    4.7736   -0.4360 H         1 <0>         0.1270
     64 H30        -8.2376    5.8481   -0.3054 H         1 <0>         0.1304
     65 H31         3.9031    2.3235    0.6689 H         1 <0>         0.3930
     66 H32        -7.4262    3.8760    1.7096 H         1 <0>         0.4293
@<TRIPOS>BOND
     1    1    6 ar
     2    1    2 ar
     3    1   37 1
     4    2    3 ar
     5    2   38 1
     6    3    4 ar
     7    3   36 1
     8    4    5 ar
     9    4   39 1
    10    5    6 ar
    11    5   40 1
    12    6    7 1
    13    7    8 1
    14    7   41 1
    15    7   42 1
    16    8    9 1
    17    8   19 1
    18    8   10 1
    19   10   11 1
    20   10   12 1
    21   10   21 1
    22   12   13 1
    23   13   18 ar
    24   13   14 ar
    25   14   15 ar
    26   14   43 1
    27   15   16 ar
    28   15   44 1
    29   16   17 ar
    30   16   20 1
    31   17   18 ar
    32   17   45 1
    33   18   19 1
    34   20   46 1
    35   21   26 ar
    36   21   22 ar
    37   22   23 ar
    38   22   47 1
    39   23   24 ar
    40   23   48 1
    41   24   25 ar
    42   24   27 1
    43   25   26 ar
    44   25   49 1
    45   26   50 1
    46   27   28 1
    47   28   29 1
    48   28   51 1
    49   28   52 1
    50   29   30 1
    51   29   53 1
    52   29   54 1
    53   30   35 1
    54   30   31 1
    55   30   66 1
    56   31   32 1
    57   31   55 1
    58   31   56 1
    59   32   33 1
    60   32   57 1
    61   32   58 1
    62   33   34 1
    63   33   59 1
    64   33   60 1
    65   34   35 1
    66   34   61 1
    67   34   62 1
    68   35   63 1
    69   35   64 1
    70   36   65 1
@<TRIPOS>MOLECULE
CHEMBL89994
   57    60     0     0     0
SMALL
USER_CHARGES

@<TRIPOS>ATOM
      1 C1          0.0289    1.3453    0.0308 C.ar      1 <0>        -0.0655
      2 C2          1.2249    2.0366    0.0258 C.ar      1 <0>        -0.1349
      3 C3          2.4259    1.3425    0.0019 C.ar      1 <0>         0.1164
      4 C4          2.4223   -0.0447   -0.0171 C.ar      1 <0>        -0.1945
      5 C5          1.2236   -0.7314   -0.0121 C.ar      1 <0>        -0.0379
      6 C6          0.0280   -0.0372    0.0118 C.ar      1 <0>        -0.0838
      7 C7         -1.2781   -0.7888    0.0177 C.3       1 <0>         0.2347
      8 C8         -1.2928   -1.7605    1.1711 C.ar      1 <0>        -0.1090
      9 C9         -0.9222   -1.2848    2.4222 C.ar      1 <0>        -0.0821
     10 C10        -0.9245   -2.1198    3.5191 C.ar      1 <0>        -0.1448
     11 C11        -1.3019   -3.4469    3.3711 C.ar      1 <0>         0.1207
     12 C12        -1.6672   -3.9210    2.1232 C.ar      1 <0>        -0.1439
     13 C13        -1.6584   -3.0795    1.0182 C.ar      1 <0>        -0.0476
     14 C14        -2.0417   -3.6722   -0.3123 C.3       1 <0>        -0.1006
     15 C15        -2.4482   -2.5781   -1.2983 C.3       1 <0>         0.0926
     16 N1         -1.4267   -1.5191   -1.2456 N.am      1 <0>        -0.5849
     17 C16        -0.6585   -1.2325   -2.3153 C.2       1 <0>         0.4879
     18 O1          0.2242   -0.4059   -2.2240 O.2       1 <0>        -0.4561
     19 C17        -0.8965   -1.9392   -3.6249 C.3       1 <0>         0.4489
     20 F1          0.0182   -1.4769   -4.5772 F         1 <0>        -0.1508
     21 F2         -0.7296   -3.3170   -3.4484 F         1 <0>        -0.1664
     22 F3         -2.1989   -1.6798   -4.0649 F         1 <0>        -0.1636
     23 O2         -1.3124   -4.2776    4.4466 O.3       1 <0>        -0.4986
     24 O3          3.6038    2.0202   -0.0035 O.3       1 <0>        -0.3290
     25 C18         4.8009    1.2403   -0.0286 C.3       1 <0>         0.0280
     26 C19         6.0157    2.1705   -0.0310 C.3       1 <0>         0.0039
     27 N2          6.0640    2.9161    1.2338 N.4       1 <0>        -0.3953
     28 C20         6.3806    1.9981    2.3577 C.3       1 <0>        -0.0104
     29 C21         6.9404    2.9491    3.4453 C.3       1 <0>        -0.1445
     30 C22         7.7497    3.9774    2.6221 C.3       1 <0>        -0.1449
     31 C23         7.1621    3.9063    1.2004 C.3       1 <0>        -0.0087
     32 H1         -0.9062    1.8852    0.0539 H         1 <0>         0.1328
     33 H2          1.2251    3.1165    0.0403 H         1 <0>         0.1317
     34 H3          3.3559   -0.5874   -0.0361 H         1 <0>         0.1233
     35 H4          1.2203   -1.8113   -0.0268 H         1 <0>         0.1184
     36 H5         -2.1019   -0.0835    0.1279 H         1 <0>         0.1066
     37 H6         -0.6293   -0.2516    2.5367 H         1 <0>         0.1282
     38 H7         -0.6337   -1.7432    4.4886 H         1 <0>         0.1327
     39 H8         -1.9615   -4.9536    2.0076 H         1 <0>         0.1340
     40 H9         -1.1926   -4.2225   -0.7176 H         1 <0>         0.0899
     41 H10        -2.8779   -4.3571   -0.1721 H         1 <0>         0.1018
     42 H11        -2.5001   -2.9905   -2.3059 H         1 <0>         0.0988
     43 H12        -3.4183   -2.1692   -1.0160 H         1 <0>         0.0982
     44 H13        -2.1552   -4.2972    4.9202 H         1 <0>         0.3971
     45 H14         4.8357    0.5996    0.8526 H         1 <0>         0.0840
     46 H15         4.8139    0.6234   -0.9271 H         1 <0>         0.1075
     47 H16         6.9253    1.5799   -0.1396 H         1 <0>         0.1480
     48 H17         5.9355    2.8706   -0.8626 H         1 <0>         0.1413
     49 H18         5.4792    1.4976    2.7113 H         1 <0>         0.1332
     50 H19         7.1343    1.2696    2.0588 H         1 <0>         0.1346
     51 H20         6.1293    3.4388    3.9841 H         1 <0>         0.0982
     52 H21         7.5904    2.4082    4.1331 H         1 <0>         0.1171
     53 H22         7.6211    4.9779    3.0350 H         1 <0>         0.1055
     54 H23         8.8051    3.7053    2.6093 H         1 <0>         0.1042
     55 H24         7.9302    3.5855    0.4968 H         1 <0>         0.1312
     56 H25         6.7732    4.8824    0.9102 H         1 <0>         0.1329
     57 H26         5.1829    3.3791    1.3991 H         1 <0>         0.4336
@<TRIPOS>BOND
     1    1    6 ar
     2    1    2 ar
     3    1   32 1
     4    2    3 ar
     5    2   33 1
     6    3    4 ar
     7    3   24 1
     8    4    5 ar
     9    4   34 1
    10    5    6 ar
    11    5   35 1
    12    6    7 1
    13    7   16 1
    14    7    8 1
    15    7   36 1
    16    8   13 ar
    17    8    9 ar
    18    9   10 ar
    19    9   37 1
    20   10   11 ar
    21   10   38 1
    22   11   12 ar
    23   11   23 1
    24   12   13 ar
    25   12   39 1
    26   13   14 1
    27   14   15 1
    28   14   40 1
    29   14   41 1
    30   15   16 1
    31   15   42 1
    32   15   43 1
    33   16   17 am
    34   17   18 2
    35   17   19 1
    36   19   20 1
    37   19   21 1
    38   19   22 1
    39   23   44 1
    40   24   25 1
    41   25   26 1
    42   25   45 1
    43   25   46 1
    44   26   27 1
    45   26   47 1
    46   26   48 1
    47   27   31 1
    48   27   28 1
    49   27   57 1
    50   28   29 1
    51   28   49 1
    52   28   50 1
    53   29   30 1
    54   29   51 1
    55   29   52 1
    56   30   31 1
    57   30   53 1
    58   30   54 1
    59   31   55 1
    60   31   56 1
@<TRIPOS>MOLECULE
CHEMBL89994__1
   57    60     0     0     0
SMALL
USER_CHARGES

@<TRIPOS>ATOM
      1 C1         -0.0044    1.3603    0.2262 C.ar      1 <0>        -0.0554
      2 C2          1.1818    2.0683    0.2191 C.ar      1 <0>        -0.1385
      3 C3          2.3802    1.4092   -0.0131 C.ar      1 <0>         0.1219
      4 C4          2.3841    0.0401   -0.2377 C.ar      1 <0>        -0.2019
      5 C5          1.1952   -0.6633   -0.2296 C.ar      1 <0>        -0.0600
      6 C6          0.0021   -0.0041    0.0020 C.ar      1 <0>        -0.1189
      7 C7         -1.2934   -0.7740    0.0107 C.3       1 <0>         0.2315
      8 C8         -1.4330   -1.5359   -1.2835 C.ar      1 <0>        -0.1054
      9 C9         -1.6938   -0.8083   -2.4373 C.ar      1 <0>        -0.0830
     10 C10        -1.8224   -1.4443   -3.6537 C.ar      1 <0>        -0.1421
     11 C11        -1.6884   -2.8236   -3.7249 C.ar      1 <0>         0.1204
     12 C12        -1.4325   -3.5481   -2.5738 C.ar      1 <0>        -0.1439
     13 C13        -1.3094   -2.9060   -1.3484 C.ar      1 <0>        -0.0512
     14 C14        -1.0582   -3.7621   -0.1350 C.3       1 <0>        -0.1018
     15 C15        -0.4798   -2.9294    1.0079 C.3       1 <0>         0.0854
     16 N1         -1.2964   -1.7114    1.1388 N.am      1 <0>        -0.5820
     17 C16        -2.0183   -1.4677    2.2506 C.2       1 <0>         0.4912
     18 O1         -2.6830   -0.4566    2.3325 O.2       1 <0>        -0.4677
     19 C17        -1.9995   -2.4517    3.3919 C.3       1 <0>         0.4537
     20 F1         -2.8190   -1.9836    4.4246 F         1 <0>        -0.1468
     21 F2         -2.4720   -3.6910    2.9470 F         1 <0>        -0.1625
     22 F3         -0.6901   -2.5938    3.8635 F         1 <0>        -0.1669
     23 O2         -1.8085   -3.4602   -4.9196 O.3       1 <0>        -0.4961
     24 O3          3.5485    2.1035   -0.0209 O.3       1 <0>        -0.3272
     25 C18         4.7436    1.3596   -0.2667 C.3       1 <0>         0.0269
     26 C19         5.9471    2.3039   -0.2373 C.3       1 <0>         0.0036
     27 N2          6.1039    2.8556    1.1151 N.4       1 <0>        -0.3960
     28 C20         6.5261    1.7882    2.0578 C.3       1 <0>        -0.0104
     29 C21         7.1749    2.5793    3.2213 C.3       1 <0>        -0.1448
     30 C22         7.9003    3.7336    2.4924 C.3       1 <0>        -0.1451
     31 C23         7.1880    3.8614    1.1331 C.3       1 <0>        -0.0087
     32 H1         -0.9372    1.8722    0.4113 H         1 <0>         0.1406
     33 H2          1.1761    3.1340    0.3939 H         1 <0>         0.1371
     34 H3          3.3157   -0.4752   -0.4190 H         1 <0>         0.1296
     35 H4          1.1977   -1.7291   -0.4044 H         1 <0>         0.1334
     36 H5         -2.1273   -0.0797    0.1138 H         1 <0>         0.1232
     37 H6         -1.7972    0.2653   -2.3812 H         1 <0>         0.1298
     38 H7         -2.0266   -0.8720   -4.5465 H         1 <0>         0.1347
     39 H8         -1.3277   -4.6216   -2.6289 H         1 <0>         0.1338
     40 H9         -1.9976   -4.2107    0.1880 H         1 <0>         0.0942
     41 H10        -0.3545   -4.5532   -0.3940 H         1 <0>         0.0998
     42 H11        -0.5175   -3.5002    1.9358 H         1 <0>         0.0985
     43 H12         0.5518   -2.6593    0.7820 H         1 <0>         0.0942
     44 H13        -0.9751   -3.5531   -5.4012 H         1 <0>         0.3946
     45 H14         4.8615    0.5968    0.5030 H         1 <0>         0.0857
     46 H15         4.6800    0.8824   -1.2445 H         1 <0>         0.1088
     47 H16         6.8472    1.7539   -0.5120 H         1 <0>         0.1490
     48 H17         5.7881    3.1172   -0.9454 H         1 <0>         0.1417
     49 H18         5.6633    1.2233    2.4108 H         1 <0>         0.1330
     50 H19         7.2546    1.1269    1.5889 H         1 <0>         0.1350
     51 H20         6.4122    2.9681    3.8960 H         1 <0>         0.0985
     52 H21         7.8876    1.9559    3.7614 H         1 <0>         0.1176
     53 H22         7.8027    4.6595    3.0592 H         1 <0>         0.1059
     54 H23         8.9521    3.4873    2.3467 H         1 <0>         0.1046
     55 H24         7.8920    3.6631    0.3249 H         1 <0>         0.1315
     56 H25         6.7683    4.8617    1.0264 H         1 <0>         0.1332
     57 H26         5.2381    3.2716    1.4241 H         1 <0>         0.4336
@<TRIPOS>BOND
     1    1    6 ar
     2    1    2 ar
     3    1   32 1
     4    2    3 ar
     5    2   33 1
     6    3    4 ar
     7    3   24 1
     8    4    5 ar
     9    4   34 1
    10    5    6 ar
    11    5   35 1
    12    6    7 1
    13    7   16 1
    14    7    8 1
    15    7   36 1
    16    8   13 ar
    17    8    9 ar
    18    9   10 ar
    19    9   37 1
    20   10   11 ar
    21   10   38 1
    22   11   12 ar
    23   11   23 1
    24   12   13 ar
    25   12   39 1
    26   13   14 1
    27   14   15 1
    28   14   40 1
    29   14   41 1
    30   15   16 1
    31   15   42 1
    32   15   43 1
    33   16   17 am
    34   17   18 2
    35   17   19 1
    36   19   20 1
    37   19   21 1
    38   19   22 1
    39   23   44 1
    40   24   25 1
    41   25   26 1
    42   25   45 1
    43   25   46 1
    44   26   27 1
    45   26   47 1
    46   26   48 1
    47   27   31 1
    48   27   28 1
    49   27   57 1
    50   28   29 1
    51   28   49 1
    52   28   50 1
    53   29   30 1
    54   29   51 1
    55   29   52 1
    56   30   31 1
    57   30   53 1
    58   30   54 1
    59   31   55 1
    60   31   56 1
@<TRIPOS>MOLECULE
CHEMBL420244
   65    69     0     0     0
SMALL
USER_CHARGES

@<TRIPOS>ATOM
      1 C1         -0.2174    1.1225   -0.0272 C.ar      1 <0>        -0.0594
      2 C2          0.9663    1.7984   -0.2573 C.ar      1 <0>        -0.1371
      3 C3          2.1601    1.1035   -0.3096 C.ar      1 <0>        -0.0212
      4 C4          2.1704   -0.2672   -0.1313 C.ar      1 <0>        -0.6790
      5 C5          0.9868   -0.9430    0.0997 C.ar      1 <0>        -0.0211
      6 C6         -0.2072   -0.2483    0.1506 C.ar      1 <0>        -0.1377
      7 S1          3.6919   -1.1531   -0.1991 S.o2      1 <0>         2.6912
      8 O1          3.3669   -2.4928   -0.5439 O.2       1 <0>        -0.9506
      9 O2          4.5874   -0.3639   -0.9701 O.2       1 <0>        -0.9471
     10 N1          4.3029   -1.1953    1.3395 N.pl3     1 <0>        -0.9911
     11 C7          5.1968   -0.1368    1.8376 C.3       1 <0>         0.1092
     12 C8          4.4838    0.5788    2.9840 C.3       1 <0>        -0.1046
     13 C9          3.8997   -0.4136    3.9548 C.ar      1 <0>        -0.0427
     14 C10         3.6048    0.0368    5.2352 C.ar      1 <0>        -0.1460
     15 C11         3.0568   -0.8204    6.1734 C.ar      1 <0>         0.1168
     16 C12         2.7990   -2.1402    5.8313 C.ar      1 <0>        -0.1453
     17 C13         3.0961   -2.5863    4.5612 C.ar      1 <0>        -0.0882
     18 C14         3.6512   -1.7266    3.6221 C.ar      1 <0>        -0.1007
     19 C15         3.9704   -2.2856    2.2626 C.3       1 <0>         0.2437
     20 C16         5.1446   -3.2236    2.3744 C.ar      1 <0>        -0.1156
     21 C17         6.3292   -2.7827    2.9347 C.ar      1 <0>        -0.0580
     22 C18         7.4072   -3.6405    3.0380 C.ar      1 <0>        -0.1424
     23 C19         7.3002   -4.9454    2.5792 C.ar      1 <0>         0.1185
     24 C20         6.1104   -5.3855    2.0178 C.ar      1 <0>        -0.2017
     25 C21         5.0336   -4.5253    1.9216 C.ar      1 <0>        -0.0577
     26 O3          8.3594   -5.7910    2.6792 O.3       1 <0>        -0.3282
     27 C22         8.1774   -7.1199    2.1863 C.3       1 <0>         0.0264
     28 C23         9.4678   -7.9180    2.3831 C.3       1 <0>         0.0038
     29 N2          9.7356   -8.0696    3.8195 N.4       1 <0>        -0.3958
     30 C24         8.7229   -8.9631    4.4378 C.3       1 <0>        -0.0104
     31 C25         9.4285   -9.4623    5.7237 C.3       1 <0>        -0.1447
     32 C26        10.8956   -9.6352    5.2680 C.3       1 <0>        -0.1450
     33 C27        11.0404   -8.7341    4.0276 C.3       1 <0>        -0.0087
     34 O4          2.7728   -0.3716    7.4243 O.3       1 <0>        -0.4993
     35 H1         -1.1496    1.6660    0.0182 H         1 <0>         0.1338
     36 H2          0.9583    2.8694   -0.3966 H         1 <0>         0.1356
     37 H3          3.0848    1.6315   -0.4901 H         1 <0>         0.1395
     38 H4          0.9948   -2.0140    0.2387 H         1 <0>         0.1373
     39 H5         -1.1319   -0.7764    0.3307 H         1 <0>         0.1346
     40 H6          6.1255   -0.5782    2.1992 H         1 <0>         0.0877
     41 H7          5.4113    0.5715    1.0374 H         1 <0>         0.1061
     42 H8          5.1968    1.2156    3.5077 H         1 <0>         0.0944
     43 H9          3.6831    1.1969    2.5779 H         1 <0>         0.0875
     44 H10         3.8045    1.0645    5.5006 H         1 <0>         0.1312
     45 H11         2.3675   -2.8145    6.5563 H         1 <0>         0.1312
     46 H12         2.8955   -3.6133    4.2940 H         1 <0>         0.1272
     47 H13         3.1062   -2.8310    1.8833 H         1 <0>         0.1116
     48 H14         6.4120   -1.7668    3.2917 H         1 <0>         0.1387
     49 H15         8.3325   -3.2954    3.4751 H         1 <0>         0.1340
     50 H16         6.0246   -6.4008    1.6599 H         1 <0>         0.1299
     51 H17         4.1057   -4.8687    1.4886 H         1 <0>         0.1376
     52 H18         7.3656   -7.6016    2.7313 H         1 <0>         0.0858
     53 H19         7.9311   -7.0832    1.1251 H         1 <0>         0.1092
     54 H20         9.3591   -8.9024    1.9279 H         1 <0>         0.1487
     55 H21        10.2971   -7.3897    1.9126 H         1 <0>         0.1414
     56 H22         7.8193   -8.4064    4.6862 H         1 <0>         0.1333
     57 H23         8.4920   -9.7983    3.7767 H         1 <0>         0.1349
     58 H24         9.3562   -8.7183    6.5170 H         1 <0>         0.0983
     59 H25         9.0104  -10.4153    6.0478 H         1 <0>         0.1172
     60 H26        11.5768   -9.3093    6.0540 H         1 <0>         0.1055
     61 H27        11.0900  -10.6750    5.0050 H         1 <0>         0.1044
     62 H28        11.2922   -9.3391    3.1566 H         1 <0>         0.1314
     63 H29        11.8146   -7.9865    4.2001 H         1 <0>         0.1329
     64 H30         1.8795   -0.0140    7.5205 H         1 <0>         0.3953
     65 H31         9.7282   -7.1679    4.2722 H         1 <0>         0.4336
@<TRIPOS>BOND
     1    1    6 ar
     2    1    2 ar
     3    1   35 1
     4    2    3 ar
     5    2   36 1
     6    3    4 ar
     7    3   37 1
     8    4    5 ar
     9    4    7 1
    10    5    6 ar
    11    5   38 1
    12    6   39 1
    13    7    8 2
    14    7    9 2
    15    7   10 1
    16   10   19 1
    17   10   11 1
    18   11   12 1
    19   11   40 1
    20   11   41 1
    21   12   13 1
    22   12   42 1
    23   12   43 1
    24   13   18 ar
    25   13   14 ar
    26   14   15 ar
    27   14   44 1
    28   15   16 ar
    29   15   34 1
    30   16   17 ar
    31   16   45 1
    32   17   18 ar
    33   17   46 1
    34   18   19 1
    35   19   20 1
    36   19   47 1
    37   20   25 ar
    38   20   21 ar
    39   21   22 ar
    40   21   48 1
    41   22   23 ar
    42   22   49 1
    43   23   24 ar
    44   23   26 1
    45   24   25 ar
    46   24   50 1
    47   25   51 1
    48   26   27 1
    49   27   28 1
    50   27   52 1
    51   27   53 1
    52   28   29 1
    53   28   54 1
    54   28   55 1
    55   29   33 1
    56   29   30 1
    57   29   65 1
    58   30   31 1
    59   30   56 1
    60   30   57 1
    61   31   32 1
    62   31   58 1
    63   31   59 1
    64   32   33 1
    65   32   60 1
    66   32   61 1
    67   33   62 1
    68   33   63 1
    69   34   64 1
@<TRIPOS>MOLECULE
CHEMBL420244__1
   65    69     0     0     0
SMALL
USER_CHARGES

@<TRIPOS>ATOM
      1 C1          8.0749   -5.9183   -0.5288 C.ar      1 <0>        -0.0609
      2 C2          6.7187   -6.1662   -0.4282 C.ar      1 <0>        -0.1418
      3 C3          5.8254   -5.1126   -0.3762 C.ar      1 <0>        -0.0259
      4 C4          6.2883   -3.8109   -0.4242 C.ar      1 <0>        -0.6782
      5 C5          7.6446   -3.5630   -0.5238 C.ar      1 <0>        -0.0220
      6 C6          8.5378   -4.6166   -0.5773 C.ar      1 <0>        -0.1352
      7 S1          5.1496   -2.4679   -0.3591 S.o2      1 <0>         2.6842
      8 O1          5.7461   -1.3947   -1.0743 O.2       1 <0>        -0.9529
      9 O2          3.8766   -2.9978   -0.7024 O.2       1 <0>        -0.9359
     10 N1          5.0509   -1.9859    1.2221 N.pl3     1 <0>        -0.9929
     11 C7          6.0067   -1.0203    1.7893 C.3       1 <0>         0.1202
     12 C8          5.2295    0.2361    2.1786 C.3       1 <0>        -0.1002
     13 C9          3.9891   -0.1198    2.9551 C.ar      1 <0>        -0.0441
     14 C10         3.4125    0.8735    3.7362 C.ar      1 <0>        -0.1466
     15 C11         2.2656    0.6164    4.4671 C.ar      1 <0>         0.1175
     16 C12         1.6869   -0.6438    4.4179 C.ar      1 <0>        -0.1458
     17 C13         2.2630   -1.6293    3.6450 C.ar      1 <0>        -0.0862
     18 C14         3.4169   -1.3719    2.9164 C.ar      1 <0>        -0.1038
     19 C15         4.0041   -2.4993    2.1121 C.3       1 <0>         0.2441
     20 C16         2.9191   -3.1454    1.2896 C.ar      1 <0>        -0.1020
     21 C17         1.9614   -2.3617    0.6729 C.ar      1 <0>        -0.0239
     22 C18         0.9655   -2.9516   -0.0813 C.ar      1 <0>        -0.1285
     23 C19         0.9272   -4.3314   -0.2200 C.ar      1 <0>         0.1242
     24 C20         1.8896   -5.1154    0.3994 C.ar      1 <0>        -0.1943
     25 C21         2.8864   -4.5204    1.1482 C.ar      1 <0>        -0.0640
     26 O3         -0.0517   -4.9141   -0.9610 O.3       1 <0>        -0.3306
     27 C22        -0.0290   -6.3394   -1.0600 C.3       1 <0>         0.0277
     28 C23        -1.1987   -6.8091   -1.9272 C.3       1 <0>         0.0036
     29 N2         -1.0169   -6.3211   -3.3008 N.4       1 <0>        -0.3957
     30 C24         0.1355   -7.0068   -3.9396 C.3       1 <0>        -0.0106
     31 C25        -0.1457   -6.8367   -5.4537 C.3       1 <0>        -0.1450
     32 C26        -1.6820   -6.9868   -5.5390 C.3       1 <0>        -0.1449
     33 C27        -2.1968   -6.6638   -4.1241 C.3       1 <0>        -0.0086
     34 O4          1.7090    1.5938    5.2299 O.3       1 <0>        -0.4979
     35 H1          8.7732   -6.7414   -0.5649 H         1 <0>         0.1338
     36 H2          6.3570   -7.1832   -0.3907 H         1 <0>         0.1317
     37 H3          4.7658   -5.3063   -0.2984 H         1 <0>         0.1380
     38 H4          8.0063   -2.5460   -0.5617 H         1 <0>         0.1377
     39 H5          9.5974   -4.4229   -0.6555 H         1 <0>         0.1365
     40 H6          6.4829   -1.4477    2.6717 H         1 <0>         0.0838
     41 H7          6.7634   -0.7703    1.0456 H         1 <0>         0.0986
     42 H8          5.8651    0.8752    2.7916 H         1 <0>         0.0952
     43 H9          4.9446    0.7757    1.2754 H         1 <0>         0.0886
     44 H10         3.8625    1.8545    3.7734 H         1 <0>         0.1322
     45 H11         0.7895   -0.8513    4.9818 H         1 <0>         0.1317
     46 H12         1.8130   -2.6103    3.6059 H         1 <0>         0.1278
     47 H13         4.4336   -3.2379    2.7889 H         1 <0>         0.0969
     48 H14         1.9916   -1.2876    0.7812 H         1 <0>         0.1257
     49 H15         0.2172   -2.3390   -0.5622 H         1 <0>         0.1270
     50 H16         1.8619   -6.1898    0.2930 H         1 <0>         0.1226
     51 H17         3.6385   -5.1300    1.6270 H         1 <0>         0.1246
     52 H18         0.9100   -6.6572   -1.5135 H         1 <0>         0.0843
     53 H19        -0.1171   -6.7743   -0.0645 H         1 <0>         0.1069
     54 H20        -1.2342   -7.8986   -1.9303 H         1 <0>         0.1471
     55 H21        -2.1316   -6.4165   -1.5226 H         1 <0>         0.1406
     56 H22         1.0722   -6.5214   -3.6653 H         1 <0>         0.1342
     57 H23         0.1540   -8.0622   -3.6679 H         1 <0>         0.1342
     58 H24         0.1650   -5.8493   -5.7952 H         1 <0>         0.0986
     59 H25         0.3508   -7.6186   -6.0284 H         1 <0>         0.1168
     60 H26        -2.0916   -6.2805   -6.2611 H         1 <0>         0.1054
     61 H27        -1.9477   -8.0074   -5.8144 H         1 <0>         0.1040
     62 H28        -2.7020   -7.5340   -3.7051 H         1 <0>         0.1310
     63 H29        -2.8815   -5.8165   -4.1626 H         1 <0>         0.1327
     64 H30         1.0535    2.1309    4.7642 H         1 <0>         0.3942
     65 H31        -0.8717   -5.3227   -3.2994 H         1 <0>         0.4345
@<TRIPOS>BOND
     1    1    6 ar
     2    1    2 ar
     3    1   35 1
     4    2    3 ar
     5    2   36 1
     6    3    4 ar
     7    3   37 1
     8    4    5 ar
     9    4    7 1
    10    5    6 ar
    11    5   38 1
    12    6   39 1
    13    7    8 2
    14    7    9 2
    15    7   10 1
    16   10   19 1
    17   10   11 1
    18   11   12 1
    19   11   40 1
    20   11   41 1
    21   12   13 1
    22   12   42 1
    23   12   43 1
    24   13   18 ar
    25   13   14 ar
    26   14   15 ar
    27   14   44 1
    28   15   16 ar
    29   15   34 1
    30   16   17 ar
    31   16   45 1
    32   17   18 ar
    33   17   46 1
    34   18   19 1
    35   19   20 1
    36   19   47 1
    37   20   25 ar
    38   20   21 ar
    39   21   22 ar
    40   21   48 1
    41   22   23 ar
    42   22   49 1
    43   23   24 ar
    44   23   26 1
    45   24   25 ar
    46   24   50 1
    47   25   51 1
    48   26   27 1
    49   27   28 1
    50   27   52 1
    51   27   53 1
    52   28   29 1
    53   28   54 1
    54   28   55 1
    55   29   33 1
    56   29   30 1
    57   29   65 1
    58   30   31 1
    59   30   56 1
    60   30   57 1
    61   31   32 1
    62   31   58 1
    63   31   59 1
    64   32   33 1
    65   32   60 1
    66   32   61 1
    67   33   62 1
    68   33   63 1
    69   34   64 1
@<TRIPOS>MOLECULE
CHEMBL295907
   71    76     0     0     0
SMALL
USER_CHARGES

@<TRIPOS>ATOM
      1 C1          5.3420   -5.7687   -9.5698 C.ar      1 <0>        -0.1121
      2 C2          5.3686   -4.4159   -9.2819 C.ar      1 <0>        -0.1178
      3 C3          5.8148   -3.9782   -8.0515 C.ar      1 <0>        -0.1070
      4 C4          6.2388   -4.9024   -7.0977 C.ar      1 <0>        -0.0570
      5 C5          6.2092   -6.2645   -7.3934 C.ar      1 <0>        -0.1068
      6 C6          5.7614   -6.6904   -8.6273 C.ar      1 <0>        -0.1172
      7 C7          6.7196   -4.4385   -5.7743 C.ar      1 <0>        -0.0210
      8 C8          6.8480   -3.0727   -5.5190 C.ar      1 <0>        -0.1104
      9 C9          7.2938   -2.6404   -4.2909 C.ar      1 <0>        -0.0848
     10 C10         7.6182   -3.5707   -3.2985 C.ar      1 <0>        -0.0350
     11 C11         7.4890   -4.9391   -3.5560 C.ar      1 <0>        -0.0851
     12 C12         7.0379   -5.3679   -4.7834 C.ar      1 <0>        -0.1085
     13 C13         8.0964   -3.1094   -1.9825 C.2       1 <0>        -0.0495
     14 C14         7.6774   -3.5166   -0.7227 C.2       1 <0>        -0.1677
     15 C15         8.3146   -2.9023    0.4442 C.ar      1 <0>        -0.0736
     16 C16         8.0590   -3.1511    1.8118 C.ar      1 <0>        -0.0618
     17 C17         8.7441   -2.4889    2.7821 C.ar      1 <0>        -0.1360
     18 C18         9.7183   -1.5461    2.4658 C.ar      1 <0>         0.1373
     19 C19         9.9958   -1.2768    1.1351 C.ar      1 <0>        -0.0999
     20 C20         9.3035   -1.9453    0.1470 C.ar      1 <0>        -0.1034
     21 S1          9.3562   -1.9009   -1.6259 S.3       1 <0>         0.0999
     22 O1         10.3903   -0.8959    3.4524 O.3       1 <0>        -0.4909
     23 C21         6.6312   -4.5281   -0.5658 C.2       1 <0>         0.4641
     24 O2          6.9334   -5.6967   -0.4037 O.2       1 <0>        -0.4309
     25 C22         5.2091   -4.1315   -0.6042 C.ar      1 <0>        -0.1815
     26 C23         4.8603   -2.7807   -0.6841 C.ar      1 <0>        -0.0194
     27 C24         3.5331   -2.4151   -0.7196 C.ar      1 <0>        -0.1528
     28 C25         2.5410   -3.3876   -0.6760 C.ar      1 <0>         0.1479
     29 C26         2.8837   -4.7323   -0.5960 C.ar      1 <0>        -0.2149
     30 C27         4.2087   -5.1065   -0.5663 C.ar      1 <0>        -0.0165
     31 O3          1.2340   -3.0232   -0.7111 O.3       1 <0>        -0.3247
     32 C28         0.2663   -4.0624   -0.5512 C.3       1 <0>         0.0225
     33 C29        -1.1395   -3.4777   -0.7021 C.3       1 <0>        -0.0008
     34 N1         -1.3805   -2.4999    0.3674 N.4       1 <0>        -0.3843
     35 C30        -1.3888   -3.1874    1.6642 C.3       1 <0>        -0.0136
     36 C31        -1.5586   -2.1628    2.7879 C.3       1 <0>        -0.1454
     37 C32        -2.8821   -1.4168    2.5954 C.3       1 <0>        -0.1391
     38 C33        -2.8926   -0.7653    1.2096 C.3       1 <0>        -0.1466
     39 C34        -2.6734   -1.8417    0.1443 C.3       1 <0>        -0.0071
     40 H1          4.9882   -6.1069  -10.5325 H         1 <0>         0.1256
     41 H2          5.0400   -3.7009  -10.0215 H         1 <0>         0.1266
     42 H3          5.8358   -2.9218   -7.8281 H         1 <0>         0.1259
     43 H4          6.5368   -6.9849   -6.6585 H         1 <0>         0.1260
     44 H5          5.7384   -7.7453   -8.8576 H         1 <0>         0.1268
     45 H6          6.5977   -2.3545   -6.2857 H         1 <0>         0.1341
     46 H7          7.3933   -1.5832   -4.0937 H         1 <0>         0.1323
     47 H8          7.7392   -5.6589   -2.7906 H         1 <0>         0.1310
     48 H9          6.9337   -6.4246   -4.9811 H         1 <0>         0.1333
     49 H10         7.3092   -3.8768    2.0901 H         1 <0>         0.1262
     50 H11         8.5277   -2.6984    3.8193 H         1 <0>         0.1383
     51 H12        10.7485   -0.5478    0.8735 H         1 <0>         0.1433
     52 H13        11.1990   -1.3426    3.7378 H         1 <0>         0.3997
     53 H14         5.6306   -2.0245   -0.7176 H         1 <0>         0.1414
     54 H15         3.2628   -1.3713   -0.7810 H         1 <0>         0.1404
     55 H16         2.1099   -5.4849   -0.5616 H         1 <0>         0.1355
     56 H17         4.4742   -6.1518   -0.5091 H         1 <0>         0.1430
     57 H18         0.4252   -4.8271   -1.3115 H         1 <0>         0.1121
     58 H19         0.3706   -4.5069    0.4385 H         1 <0>         0.0899
     59 H20        -1.2263   -2.9855   -1.6707 H         1 <0>         0.1431
     60 H21        -1.8755   -4.2789   -0.6344 H         1 <0>         0.1501
     61 H22        -2.2150   -3.8978    1.6930 H         1 <0>         0.1305
     62 H23        -0.4476   -3.7205    1.7983 H         1 <0>         0.1275
     63 H24        -1.5663   -2.6754    3.7498 H         1 <0>         0.1124
     64 H25        -0.7327   -1.4520    2.7602 H         1 <0>         0.0881
     65 H26        -3.7115   -2.1197    2.6741 H         1 <0>         0.0821
     66 H27        -2.9813   -0.6470    3.3608 H         1 <0>         0.0949
     67 H28        -3.8539   -0.2791    1.0433 H         1 <0>         0.1132
     68 H29        -2.0945   -0.0255    1.1491 H         1 <0>         0.0881
     69 H30        -2.6806   -1.3813   -0.8437 H         1 <0>         0.1312
     70 H31        -3.4722   -2.5808    0.2055 H         1 <0>         0.1294
     71 H32        -0.6464   -1.8078    0.3606 H         1 <0>         0.4294
@<TRIPOS>BOND
     1    1    6 ar
     2    1    2 ar
     3    1   40 1
     4    2    3 ar
     5    2   41 1
     6    3    4 ar
     7    3   42 1
     8    4    5 ar
     9    4    7 1
    10    5    6 ar
    11    5   43 1
    12    6   44 1
    13    7   12 ar
    14    7    8 ar
    15    8    9 ar
    16    8   45 1
    17    9   10 ar
    18    9   46 1
    19   10   11 ar
    20   10   13 1
    21   11   12 ar
    22   11   47 1
    23   12   48 1
    24   13   21 1
    25   13   14 2
    26   14   15 1
    27   14   23 1
    28   15   20 ar
    29   15   16 ar
    30   16   17 ar
    31   16   49 1
    32   17   18 ar
    33   17   50 1
    34   18   19 ar
    35   18   22 1
    36   19   20 ar
    37   19   51 1
    38   20   21 1
    39   22   52 1
    40   23   24 2
    41   23   25 1
    42   25   30 ar
    43   25   26 ar
    44   26   27 ar
    45   26   53 1
    46   27   28 ar
    47   27   54 1
    48   28   29 ar
    49   28   31 1
    50   29   30 ar
    51   29   55 1
    52   30   56 1
    53   31   32 1
    54   32   33 1
    55   32   57 1
    56   32   58 1
    57   33   34 1
    58   33   59 1
    59   33   60 1
    60   34   39 1
    61   34   35 1
    62   34   71 1
    63   35   36 1
    64   35   61 1
    65   35   62 1
    66   36   37 1
    67   36   63 1
    68   36   64 1
    69   37   38 1
    70   37   65 1
    71   37   66 1
    72   38   39 1
    73   38   67 1
    74   38   68 1
    75   39   69 1
    76   39   70 1
@<TRIPOS>MOLECULE
CHEMBL302362
   54    58     0     0     0
SMALL
USER_CHARGES

@<TRIPOS>ATOM
      1 C1         -0.5779    1.2887   -0.0358 C.3       1 <0>        -0.1192
      2 C2          0.0100   -0.0984    0.0043 C.ar      1 <0>        -0.0715
      3 C3          0.2721   -0.7724   -1.1698 C.ar      1 <0>        -0.1254
      4 C4          0.8114   -2.0464   -1.1350 C.ar      1 <0>        -0.1116
      5 C5          1.0924   -2.6542    0.0765 C.ar      1 <0>        -0.1301
      6 C6          0.8362   -1.9938    1.2591 C.ar      1 <0>        -0.0940
      7 C7          0.2964   -0.7033    1.2324 C.ar      1 <0>        -0.0560
      8 C8          0.0255    0.0110    2.4894 C.2       1 <0>        -0.1069
      9 C9         -0.0558   -0.6708    3.6465 C.2       1 <0>         0.0981
     10 C10        -0.1907   -0.0415    4.9647 C.ar      1 <0>        -0.0175
     11 C11        -1.1850   -0.6389    5.7939 C.ar      1 <0>        -0.0939
     12 C12        -1.6965    0.0651    6.8691 C.ar      1 <0>        -0.0505
     13 C13        -1.1678    1.3014    7.1917 C.ar      1 <0>        -0.1907
     14 C14        -0.0481    1.7842    6.5243 C.ar      1 <0>         0.2318
     15 C15         0.5127    1.0518    5.4594 C.ar      1 <0>        -0.0832
     16 C16         1.8486    1.4534    4.9943 C.2       1 <0>        -0.0549
     17 C17         2.4004    2.5861    5.4147 C.2       1 <0>        -0.1698
     18 C18         1.7489    3.5229    6.3838 C.3       1 <0>         0.2152
     19 N1          0.4822    3.0136    6.8972 N.pl3     1 <0>        -0.7253
     20 C19         1.5086    4.8733    5.6936 C.3       1 <0>        -0.1588
     21 C20         2.7042    3.7498    7.5683 C.3       1 <0>        -0.1604
     22 C21         2.6656    0.5747    4.0770 C.3       1 <0>        -0.1163
     23 C22        -1.5924   -2.0202    5.4617 C.ar      1 <0>        -0.0937
     24 C23        -2.5686   -2.6751    6.2087 C.ar      1 <0>        -0.0824
     25 C24        -2.9288   -3.9677    5.8858 C.ar      1 <0>        -0.1408
     26 C25        -2.3257   -4.6149    4.8192 C.ar      1 <0>        -0.0887
     27 C26        -1.3622   -3.9712    4.0673 C.ar      1 <0>        -0.1353
     28 C27        -0.9863   -2.6746    4.3797 C.ar      1 <0>         0.1135
     29 O1         -0.0375   -2.0456    3.6382 O.3       1 <0>        -0.2424
     30 H1          0.2266    2.0234   -0.0690 H         1 <0>         0.0722
     31 H2         -1.2022    1.3932   -0.9232 H         1 <0>         0.0684
     32 H3         -1.1832    1.4527    0.8557 H         1 <0>         0.0673
     33 H4          0.0557   -0.3049   -2.1190 H         1 <0>         0.1220
     34 H5          1.0138   -2.5693   -2.0581 H         1 <0>         0.1208
     35 H6          1.5133   -3.6487    0.0953 H         1 <0>         0.1216
     36 H7          1.0556   -2.4695    2.2035 H         1 <0>         0.1410
     37 H8         -0.1082    1.0826    2.4836 H         1 <0>         0.1439
     38 H9         -2.5061   -0.3441    7.4547 H         1 <0>         0.1312
     39 H10        -1.6277    1.9013    7.9623 H         1 <0>         0.1287
     40 H11         3.3844    2.8411    5.0268 H         1 <0>         0.1280
     41 H12        -0.0257    3.5662    7.5352 H         1 <0>         0.4048
     42 H13         0.8594    4.7295    4.8299 H         1 <0>         0.0602
     43 H14         1.0342    5.5602    6.3944 H         1 <0>         0.0608
     44 H15         2.4618    5.2888    5.3665 H         1 <0>         0.0701
     45 H16         3.6367    4.1821    7.2053 H         1 <0>         0.0694
     46 H17         2.2419    4.4310    8.2826 H         1 <0>         0.0609
     47 H18         2.9109    2.7972    8.0561 H         1 <0>         0.0596
     48 H19         2.4398    0.8228    3.0399 H         1 <0>         0.0739
     49 H20         3.7264    0.7383    4.2669 H         1 <0>         0.0672
     50 H21         2.4204   -0.4711    4.2621 H         1 <0>         0.0671
     51 H22        -3.0492   -2.1735    7.0350 H         1 <0>         0.1287
     52 H23        -3.6801   -4.4796    6.4682 H         1 <0>         0.1279
     53 H24        -2.6076   -5.6287    4.5764 H         1 <0>         0.1319
     54 H25        -0.9037   -4.4778    3.2315 H         1 <0>         0.1332
@<TRIPOS>BOND
     1    1    2 1
     2    1   30 1
     3    1   31 1
     4    1   32 1
     5    2    7 ar
     6    2    3 ar
     7    3    4 ar
     8    3   33 1
     9    4    5 ar
    10    4   34 1
    11    5    6 ar
    12    5   35 1
    13    6    7 ar
    14    6   36 1
    15    7    8 1
    16    8    9 2
    17    8   37 1
    18    9   29 1
    19    9   10 1
    20   10   15 ar
    21   10   11 ar
    22   11   12 ar
    23   11   23 1
    24   12   13 ar
    25   12   38 1
    26   13   14 ar
    27   13   39 1
    28   14   19 1
    29   14   15 ar
    30   15   16 1
    31   16   17 2
    32   16   22 1
    33   17   18 1
    34   17   40 1
    35   18   19 1
    36   18   20 1
    37   18   21 1
    38   19   41 1
    39   20   42 1
    40   20   43 1
    41   20   44 1
    42   21   45 1
    43   21   46 1
    44   21   47 1
    45   22   48 1
    46   22   49 1
    47   22   50 1
    48   23   28 ar
    49   23   24 ar
    50   24   25 ar
    51   24   51 1
    52   25   26 ar
    53   25   52 1
    54   26   27 ar
    55   26   53 1
    56   27   28 ar
    57   27   54 1
    58   28   29 1
@<TRIPOS>MOLECULE
CHEMBL315475
   51    54     0     0     0
SMALL
USER_CHARGES

@<TRIPOS>ATOM
      1 C1          0.2911    2.1997   -0.8178 C.3       1 <0>        -0.1446
      2 C2         -0.0019    0.7401   -0.4651 C.3       1 <0>        -0.0589
      3 C3          0.7050   -0.1644   -1.4415 C.2       1 <0>        -0.1298
      4 C4          0.1630   -0.7086   -2.6299 C.2       1 <0>        -0.1066
      5 C5          1.1648   -1.4720   -3.2034 C.2       1 <0>         0.0426
      6 O1          2.2515   -1.3963   -2.4105 O.3       1 <0>        -0.1542
      7 C6          1.9863   -0.6079   -1.3514 C.2       1 <0>         0.0278
      8 C7          2.9334   -0.2809   -0.2663 C.ar      1 <0>        -0.0259
      9 C8          2.5407   -0.4077    1.0680 C.ar      1 <0>        -0.0759
     10 C9          3.4278   -0.1015    2.0776 C.ar      1 <0>        -0.1427
     11 C10         4.7103    0.3331    1.7696 C.ar      1 <0>         0.1170
     12 C11         5.1049    0.4606    0.4443 C.ar      1 <0>        -0.1436
     13 C12         4.2262    0.1506   -0.5715 C.ar      1 <0>        -0.0786
     14 O2          5.5813    0.6348    2.7679 O.3       1 <0>        -0.4984
     15 C13         1.0610   -2.2345   -4.4608 C.ar      1 <0>        -0.0285
     16 C14         2.0736   -2.1456   -5.4205 C.ar      1 <0>        -0.0781
     17 C15         1.9722   -2.8606   -6.5941 C.ar      1 <0>        -0.1455
     18 C16         0.8660   -3.6683   -6.8245 C.ar      1 <0>         0.1188
     19 C17        -0.1429   -3.7596   -5.8743 C.ar      1 <0>        -0.1435
     20 C18        -0.0477   -3.0532   -4.6949 C.ar      1 <0>        -0.0656
     21 O3          0.7703   -4.3711   -7.9835 O.3       1 <0>        -0.4985
     22 C19        -1.2071   -0.5019   -3.1565 C.ar      1 <0>        -0.0524
     23 C20        -2.3063   -1.0038   -2.4607 C.ar      1 <0>        -0.0661
     24 C21        -3.5797   -0.8097   -2.9534 C.ar      1 <0>        -0.1497
     25 C22        -3.7678   -0.1160   -4.1411 C.ar      1 <0>         0.1309
     26 C23        -2.6757    0.3851   -4.8364 C.ar      1 <0>        -0.2047
     27 C24        -1.4000    0.1999   -4.3460 C.ar      1 <0>        -0.0581
     28 O4         -5.0239    0.0727   -4.6244 O.3       1 <0>        -0.3170
     29 C25        -5.1452    0.7952   -5.8513 C.3       1 <0>         0.0261
     30 H1          1.3653    2.3775   -0.7655 H         1 <0>         0.0542
     31 H2         -0.0629    2.4076   -1.8275 H         1 <0>         0.0551
     32 H3         -0.2202    2.8539   -0.1116 H         1 <0>         0.0589
     33 H4          0.3520    0.5321    0.5446 H         1 <0>         0.0742
     34 H5         -1.0761    0.5623   -0.5174 H         1 <0>         0.0758
     35 H6          1.5432   -0.7449    1.3084 H         1 <0>         0.1344
     36 H7          3.1249   -0.1992    3.1096 H         1 <0>         0.1361
     37 H8          6.1033    0.7989    0.2091 H         1 <0>         0.1344
     38 H9          4.5354    0.2458   -1.6019 H         1 <0>         0.1308
     39 H10         6.1179   -0.1142    3.0614 H         1 <0>         0.3942
     40 H11         2.9338   -1.5172   -5.2425 H         1 <0>         0.1312
     41 H12         2.7540   -2.7926   -7.3361 H         1 <0>         0.1345
     42 H13        -1.0013   -4.3887   -6.0582 H         1 <0>         0.1351
     43 H14        -0.8305   -3.1283   -3.9547 H         1 <0>         0.1321
     44 H15         1.1606   -5.2549   -7.9409 H         1 <0>         0.3942
     45 H16        -2.1606   -1.5442   -1.5370 H         1 <0>         0.1299
     46 H17        -4.4315   -1.1982   -2.4150 H         1 <0>         0.1329
     47 H18        -2.8255    0.9243   -5.7600 H         1 <0>         0.1293
     48 H19        -0.5512    0.5941   -4.8849 H         1 <0>         0.1226
     49 H20        -4.7257    1.7937   -5.7280 H         1 <0>         0.0562
     50 H21        -4.6047    0.2687   -6.6380 H         1 <0>         0.0564
     51 H22        -6.1976    0.8744   -6.1239 H         1 <0>         0.1014
@<TRIPOS>BOND
     1    1    2 1
     2    1   30 1
     3    1   31 1
     4    1   32 1
     5    2    3 1
     6    2   33 1
     7    2   34 1
     8    3    7 2
     9    3    4 1
    10    4    5 2
    11    4   22 1
    12    5    6 1
    13    5   15 1
    14    6    7 1
    15    7    8 1
    16    8   13 ar
    17    8    9 ar
    18    9   10 ar
    19    9   35 1
    20   10   11 ar
    21   10   36 1
    22   11   12 ar
    23   11   14 1
    24   12   13 ar
    25   12   37 1
    26   13   38 1
    27   14   39 1
    28   15   20 ar
    29   15   16 ar
    30   16   17 ar
    31   16   40 1
    32   17   18 ar
    33   17   41 1
    34   18   19 ar
    35   18   21 1
    36   19   20 ar
    37   19   42 1
    38   20   43 1
    39   21   44 1
    40   22   27 ar
    41   22   23 ar
    42   23   24 ar
    43   23   45 1
    44   24   25 ar
    45   24   46 1
    46   25   26 ar
    47   25   28 1
    48   26   27 ar
    49   26   47 1
    50   27   48 1
    51   28   29 1
    52   29   49 1
    53   29   50 1
    54   29   51 1
@<TRIPOS>MOLECULE
CHEMBL315474
   70    74     0     0     0
SMALL
USER_CHARGES

@<TRIPOS>ATOM
      1 C1          0.6628    1.9781    0.8761 C.3       1 <0>        -0.1447
      2 C2          0.6379    0.4744    0.5945 C.3       1 <0>        -0.0599
      3 C3          1.1091   -0.2731    1.8153 C.2       1 <0>        -0.1211
      4 C4          2.4272   -0.7184    2.0737 C.2       1 <0>        -0.1139
      5 C5          2.3926   -1.3511    3.3041 C.2       1 <0>         0.0580
      6 O1          1.1283   -1.2938    3.7662 O.3       1 <0>        -0.1548
      7 C6          0.3505   -0.6427    2.8803 C.2       1 <0>         0.0124
      8 C7         -1.0936   -0.3764    3.0392 C.ar      1 <0>        -0.0281
      9 C8         -1.9790   -0.6744    2.0010 C.ar      1 <0>        -0.0533
     10 C9         -3.3259   -0.4242    2.1534 C.ar      1 <0>        -0.1369
     11 C10        -3.8028    0.1237    3.3369 C.ar      1 <0>         0.1211
     12 C11        -2.9260    0.4215    4.3718 C.ar      1 <0>        -0.1997
     13 C12        -1.5783    0.1688    4.2301 C.ar      1 <0>        -0.0555
     14 O2         -5.1313    0.3696    3.4827 O.3       1 <0>        -0.3265
     15 C13        -5.5540    0.9340    4.7256 C.3       1 <0>         0.0244
     16 C14        -7.0702    1.1380    4.7035 C.3       1 <0>        -0.0010
     17 N1         -7.7384   -0.1661    4.5999 N.4       1 <0>        -0.3843
     18 C15        -9.1816    0.0376    4.4263 C.3       1 <0>        -0.0070
     19 C16        -9.8722   -1.3146    4.2367 C.3       1 <0>        -0.1467
     20 C17        -9.6230   -2.1864    5.4708 C.3       1 <0>        -0.1391
     21 C18        -8.1136   -2.3307    5.6853 C.3       1 <0>        -0.1455
     22 C19        -7.4881   -0.9408    5.8212 C.3       1 <0>        -0.0134
     23 C20         3.5378   -1.9781    3.9885 C.ar      1 <0>        -0.0378
     24 C21         3.7647   -1.7309    5.3456 C.ar      1 <0>        -0.0767
     25 C22         4.8363   -2.3198    5.9811 C.ar      1 <0>        -0.1461
     26 C23         5.6906   -3.1572    5.2755 C.ar      1 <0>         0.1251
     27 C24         5.4697   -3.4055    3.9269 C.ar      1 <0>        -0.1425
     28 C25         4.3971   -2.8263    3.2840 C.ar      1 <0>        -0.0639
     29 O3          6.7462   -3.7352    5.9064 O.3       1 <0>        -0.4969
     30 C26         3.6111   -0.5420    1.1994 C.ar      1 <0>        -0.0278
     31 C27         3.6678   -1.1829   -0.0378 C.ar      1 <0>        -0.0896
     32 C28         4.7708   -1.0167   -0.8488 C.ar      1 <0>        -0.1430
     33 C29         5.8240   -0.2128   -0.4346 C.ar      1 <0>         0.1120
     34 C30         5.7709    0.4266    0.7964 C.ar      1 <0>        -0.1411
     35 C31         4.6681    0.2697    1.6097 C.ar      1 <0>        -0.0821
     36 O4          6.9099   -0.0519   -1.2358 O.3       1 <0>        -0.4988
     37 H1          1.6798    2.2853    1.1202 H         1 <0>         0.0575
     38 H2          0.3220    2.5187   -0.0069 H         1 <0>         0.0603
     39 H3          0.0044    2.2015    1.7155 H         1 <0>         0.0519
     40 H4         -0.3790    0.1672    0.3504 H         1 <0>         0.0725
     41 H5          1.2964    0.2510   -0.2449 H         1 <0>         0.0782
     42 H6         -1.6088   -1.0999    1.0799 H         1 <0>         0.1425
     43 H7         -4.0113   -0.6543    1.3511 H         1 <0>         0.1397
     44 H8         -3.3011    0.8476    5.2906 H         1 <0>         0.1320
     45 H9         -0.8977    0.3966    5.0371 H         1 <0>         0.1345
     46 H10        -5.2901    0.2589    5.5397 H         1 <0>         0.0873
     47 H11        -5.0603    1.8942    4.8752 H         1 <0>         0.1106
     48 H12        -7.3833    1.6348    5.6219 H         1 <0>         0.1493
     49 H13        -7.3415    1.7544    3.8464 H         1 <0>         0.1431
     50 H14        -9.5871    0.5316    5.3093 H         1 <0>         0.1292
     51 H15        -9.3572    0.6609    3.5495 H         1 <0>         0.1312
     52 H16       -10.9439   -1.1613    4.1098 H         1 <0>         0.1131
     53 H17        -9.4676   -1.8094    3.3538 H         1 <0>         0.0881
     54 H18       -10.0722   -1.7166    6.3458 H         1 <0>         0.0821
     55 H19       -10.0650   -3.1708    5.3170 H         1 <0>         0.0948
     56 H20        -7.9282   -2.9037    6.5938 H         1 <0>         0.1123
     57 H21        -7.6724   -2.8466    4.8325 H         1 <0>         0.0880
     58 H22        -6.4134   -1.0399    5.9743 H         1 <0>         0.1273
     59 H23        -7.9297   -0.4260    6.6745 H         1 <0>         0.1304
     60 H24         3.1014   -1.0793    5.8950 H         1 <0>         0.1301
     61 H25         5.0124   -2.1295    7.0295 H         1 <0>         0.1358
     62 H26         6.1369   -4.0571    3.3823 H         1 <0>         0.1374
     63 H27         4.2236   -3.0235    2.2365 H         1 <0>         0.1319
     64 H28         6.5463   -4.5956    6.2997 H         1 <0>         0.3960
     65 H29         2.8490   -1.8090   -0.3603 H         1 <0>         0.1268
     66 H30         4.8153   -1.5128   -1.8071 H         1 <0>         0.1319
     67 H31         6.5920    1.0513    1.1157 H         1 <0>         0.1314
     68 H32         4.6252    0.7713    2.5652 H         1 <0>         0.1245
     69 H33         6.8402    0.6936   -1.8477 H         1 <0>         0.3934
     70 H34        -7.3734   -0.6676    3.8040 H         1 <0>         0.4293
@<TRIPOS>BOND
     1    1    2 1
     2    1   37 1
     3    1   38 1
     4    1   39 1
     5    2    3 1
     6    2   40 1
     7    2   41 1
     8    3    7 2
     9    3    4 1
    10    4    5 2
    11    4   30 1
    12    5    6 1
    13    5   23 1
    14    6    7 1
    15    7    8 1
    16    8   13 ar
    17    8    9 ar
    18    9   10 ar
    19    9   42 1
    20   10   11 ar
    21   10   43 1
    22   11   12 ar
    23   11   14 1
    24   12   13 ar
    25   12   44 1
    26   13   45 1
    27   14   15 1
    28   15   16 1
    29   15   46 1
    30   15   47 1
    31   16   17 1
    32   16   48 1
    33   16   49 1
    34   17   22 1
    35   17   18 1
    36   17   70 1
    37   18   19 1
    38   18   50 1
    39   18   51 1
    40   19   20 1
    41   19   52 1
    42   19   53 1
    43   20   21 1
    44   20   54 1
    45   20   55 1
    46   21   22 1
    47   21   56 1
    48   21   57 1
    49   22   58 1
    50   22   59 1
    51   23   28 ar
    52   23   24 ar
    53   24   25 ar
    54   24   60 1
    55   25   26 ar
    56   25   61 1
    57   26   27 ar
    58   26   29 1
    59   27   28 ar
    60   27   62 1
    61   28   63 1
    62   29   64 1
    63   30   35 ar
    64   30   31 ar
    65   31   32 ar
    66   31   65 1
    67   32   33 ar
    68   32   66 1
    69   33   34 ar
    70   33   36 1
    71   34   35 ar
    72   34   67 1
    73   35   68 1
    74   36   69 1
@<TRIPOS>MOLECULE
CHEMBL58714
   64    68     0     0     0
SMALL
USER_CHARGES

@<TRIPOS>ATOM
      1 C1         -0.1045    1.5019    0.0093 C.3       1 <0>        -0.1187
      2 C2         -0.0825   -0.0049    0.0012 C.ar      1 <0>        -0.1009
      3 C3         -0.0516   -0.6868   -1.1970 C.ar      1 <0>        -0.0534
      4 C4         -0.0313   -2.0807   -1.2037 C.ar      1 <0>        -0.1119
      5 C5         -0.0422   -2.7811    0.0020 C.ar      1 <0>        -0.0857
      6 C6         -0.0730   -2.0938    1.1966 C.ar      1 <0>        -0.1328
      7 C7         -0.0875   -0.7050    1.2001 C.ar      1 <0>         0.1542
      8 O1         -0.1123   -0.0304    2.3789 O.3       1 <0>        -0.4880
      9 C8          0.0014   -2.8170   -2.4904 C.ar      1 <0>         0.2480
     10 C9          0.0174   -2.1095   -3.6870 C.ar      1 <0>        -0.1769
     11 C10         0.0486   -2.8145   -4.8925 C.ar      1 <0>         0.1346
     12 C11         0.0626   -4.2095   -4.8449 C.ar      1 <0>        -0.2214
     13 C12         0.0451   -4.8451   -3.6096 C.ar      1 <0>         0.4617
     14 N1          0.0206   -4.1450   -2.4866 N.ar      1 <0>        -0.5220
     15 N2          0.0583   -6.2342   -3.5522 N.pl3     1 <0>        -0.5873
     16 C13         0.1724   -6.9291   -2.2628 C.3       1 <0>         0.0996
     17 C14        -0.9826   -7.9275   -2.1368 C.3       1 <0>        -0.1345
     18 C15        -0.9839   -8.8561   -3.3533 C.3       1 <0>        -0.0833
     19 C16        -1.1942   -8.0323   -4.6258 C.3       1 <0>        -0.1383
     20 C17        -0.0477   -7.0351   -4.7794 C.3       1 <0>         0.1107
     21 C18        -2.1151   -9.8768   -3.2141 C.3       1 <0>        -0.0754
     22 C19        -2.0411  -10.8664   -4.3483 C.ar      1 <0>        -0.0889
     23 C20        -2.7160  -10.6166   -5.5286 C.ar      1 <0>        -0.1201
     24 C21        -2.6481  -11.5243   -6.5690 C.ar      1 <0>        -0.1168
     25 C22        -1.9050  -12.6815   -6.4293 C.ar      1 <0>        -0.1190
     26 C23        -1.2294  -12.9308   -5.2493 C.ar      1 <0>        -0.1146
     27 C24        -1.2938  -12.0211   -4.2105 C.ar      1 <0>        -0.1169
     28 C25         0.0660   -2.0980   -6.1919 C.ar      1 <0>        -0.1016
     29 C26         0.0914   -2.8158   -7.3859 C.ar      1 <0>        -0.0786
     30 C27         0.1076   -2.1443   -8.5916 C.ar      1 <0>        -0.1197
     31 C28         0.0991   -0.7614   -8.6161 C.ar      1 <0>        -0.0776
     32 C29         0.0743   -0.0438   -7.4339 C.ar      1 <0>        -0.1191
     33 C30         0.0513   -0.7051   -6.2226 C.ar      1 <0>        -0.0784
     34 H1          0.9177    1.8801    0.0243 H         1 <0>         0.0838
     35 H2         -0.6123    1.8627   -0.8852 H         1 <0>         0.0751
     36 H3         -0.6347    1.8528    0.8946 H         1 <0>         0.0777
     37 H4         -0.0436   -0.1416   -2.1292 H         1 <0>         0.1439
     38 H5         -0.0269   -3.8610   -0.0000 H         1 <0>         0.1224
     39 H6         -0.0815   -2.6357    2.1307 H         1 <0>         0.1472
     40 H7         -1.0027    0.1521    2.7090 H         1 <0>         0.4045
     41 H8          0.0054   -1.0296   -3.6845 H         1 <0>         0.1769
     42 H9          0.0863   -4.7875   -5.7569 H         1 <0>         0.1783
     43 H10         1.1224   -7.4617   -2.2175 H         1 <0>         0.1021
     44 H11         0.1187   -6.2038   -1.4508 H         1 <0>         0.0721
     45 H12        -0.8562   -8.5174   -1.2289 H         1 <0>         0.0948
     46 H13        -1.9278   -7.3865   -2.0910 H         1 <0>         0.0756
     47 H14        -0.0290   -9.3784   -3.4124 H         1 <0>         0.0831
     48 H15        -1.2183   -8.6968   -5.4895 H         1 <0>         0.0994
     49 H16        -2.1373   -7.4903   -4.5566 H         1 <0>         0.0747
     50 H17        -0.2465   -6.3798   -5.6274 H         1 <0>         0.0986
     51 H18         0.8839   -7.5765   -4.9440 H         1 <0>         0.0951
     52 H19        -2.0145  -10.4036   -2.2652 H         1 <0>         0.0783
     53 H20        -3.0751   -9.3615   -3.2436 H         1 <0>         0.0745
     54 H21        -3.2966   -9.7125   -5.6378 H         1 <0>         0.1191
     55 H22        -3.1760  -11.3295   -7.4909 H         1 <0>         0.1233
     56 H23        -1.8526  -13.3910   -7.2418 H         1 <0>         0.1240
     57 H24        -0.6491  -13.8351   -5.1400 H         1 <0>         0.1240
     58 H25        -0.7629  -12.2141   -3.2900 H         1 <0>         0.1207
     59 H26         0.0988   -3.8957   -7.3679 H         1 <0>         0.1298
     60 H27         0.1272   -2.6997   -9.5177 H         1 <0>         0.1370
     61 H28         0.1121   -0.2399   -9.5618 H         1 <0>         0.1362
     62 H29         0.0685    1.0359   -7.4587 H         1 <0>         0.1376
     63 H30         0.0271   -0.1438   -5.3002 H         1 <0>         0.1318
     64 H31         0.0129   -4.6146   -1.6379 H         1 <0>         0.4311
@<TRIPOS>BOND
     1    1    2 1
     2    1   34 1
     3    1   35 1
     4    1   36 1
     5    2    7 ar
     6    2    3 ar
     7    3    4 ar
     8    3   37 1
     9    4    5 ar
    10    4    9 1
    11    5    6 ar
    12    5   38 1
    13    6    7 ar
    14    6   39 1
    15    7    8 1
    16    8   40 1
    17    9   14 ar
    18    9   10 ar
    19   10   11 ar
    20   10   41 1
    21   11   12 ar
    22   11   28 1
    23   12   13 ar
    24   12   42 1
    25   13   14 ar
    26   13   15 1
    27   14   64 1
    28   15   20 1
    29   15   16 1
    30   16   17 1
    31   16   43 1
    32   16   44 1
    33   17   18 1
    34   17   45 1
    35   17   46 1
    36   18   19 1
    37   18   21 1
    38   18   47 1
    39   19   20 1
    40   19   48 1
    41   19   49 1
    42   20   50 1
    43   20   51 1
    44   21   22 1
    45   21   52 1
    46   21   53 1
    47   22   27 ar
    48   22   23 ar
    49   23   24 ar
    50   23   54 1
    51   24   25 ar
    52   24   55 1
    53   25   26 ar
    54   25   56 1
    55   26   27 ar
    56   26   57 1
    57   27   58 1
    58   28   33 ar
    59   28   29 ar
    60   29   30 ar
    61   29   59 1
    62   30   31 ar
    63   30   60 1
    64   31   32 ar
    65   31   61 1
    66   32   33 ar
    67   32   62 1
    68   33   63 1
@<TRIPOS>MOLECULE
CHEMBL176509
   67    71     0     0     0
SMALL
USER_CHARGES

@<TRIPOS>ATOM
      1 C1         -3.2999    1.0933   -2.5361 C.ar      1 <0>        -0.0810
      2 C2         -3.1969    2.1333   -3.4313 C.ar      1 <0>        -0.1502
      3 C3         -1.9842    2.7932   -3.5982 C.ar      1 <0>         0.1174
      4 C4         -0.8691    2.4065   -2.8629 C.ar      1 <0>        -0.1459
      5 C5         -0.9599    1.3676   -1.9651 C.ar      1 <0>        -0.0676
      6 C6         -2.1795    0.6995   -1.7919 C.ar      1 <0>        -0.0933
      7 C7         -2.2829   -0.4081   -0.8364 C.2       1 <0>        -0.0020
      8 C8         -1.5728   -1.5521   -1.0489 C.2       1 <0>        -0.1466
      9 C9         -1.7277   -2.6857   -0.1086 C.ar      1 <0>        -0.0466
     10 C10        -0.7997   -3.7249   -0.0895 C.ar      1 <0>        -0.0868
     11 C11        -0.9532   -4.7629    0.8059 C.ar      1 <0>        -0.1438
     12 C12        -2.0277   -4.7702    1.6856 C.ar      1 <0>         0.1176
     13 C13        -2.9572   -3.7386    1.6634 C.ar      1 <0>        -0.1382
     14 C14        -2.8148   -2.7028    0.7651 C.ar      1 <0>        -0.0542
     15 C15        -3.8409   -1.6023    0.7027 C.3       1 <0>        -0.0807
     16 C16        -3.1668   -0.2694    0.3731 C.3       1 <0>        -0.0849
     17 O1         -2.1706   -5.7909    2.5711 O.3       1 <0>        -0.4988
     18 C17        -0.6644   -1.6596   -2.1982 C.2       1 <0>         0.4490
     19 O2          0.3479   -0.9848   -2.2391 O.2       1 <0>        -0.4310
     20 C18        -0.9790   -2.5858   -3.3035 C.ar      1 <0>        -0.1816
     21 C19        -2.2035   -3.2598   -3.3261 C.ar      1 <0>        -0.0199
     22 C20        -2.4932   -4.1226   -4.3592 C.ar      1 <0>        -0.1535
     23 C21        -1.5700   -4.3238   -5.3790 C.ar      1 <0>         0.1457
     24 C22        -0.3509   -3.6558   -5.3601 C.ar      1 <0>        -0.2160
     25 C23        -0.0557   -2.7870   -4.3337 C.ar      1 <0>        -0.0190
     26 O3         -1.8595   -5.1751   -6.3955 O.3       1 <0>        -0.3239
     27 C24        -0.8663   -5.3353   -7.4103 C.3       1 <0>         0.0226
     28 C25        -1.3680   -6.3255   -8.4632 C.3       1 <0>        -0.0009
     29 N1         -2.5371   -5.7600   -9.1496 N.4       1 <0>        -0.3845
     30 C26        -2.1333   -4.5608   -9.8935 C.3       1 <0>        -0.0142
     31 C27        -3.3619   -3.9217  -10.5442 C.3       1 <0>        -0.1454
     32 C28        -4.0055   -4.9269  -11.5037 C.3       1 <0>        -0.1390
     33 C29        -4.3550   -6.2026  -10.7319 C.3       1 <0>        -0.1467
     34 C30        -3.0896   -6.7571  -10.0742 C.3       1 <0>        -0.0070
     35 O4         -1.8886    3.8183   -4.4826 O.3       1 <0>        -0.5002
     36 H1         -4.2433    0.5845   -2.4040 H         1 <0>         0.1297
     37 H2         -4.0595    2.4375   -4.0056 H         1 <0>         0.1319
     38 H3          0.0702    2.9224   -2.9970 H         1 <0>         0.1326
     39 H4         -0.0929    1.0677   -1.3951 H         1 <0>         0.1379
     40 H5          0.0362   -3.7179   -0.7733 H         1 <0>         0.1228
     41 H6         -0.2370   -5.5711    0.8227 H         1 <0>         0.1322
     42 H7         -3.7912   -3.7480    2.3495 H         1 <0>         0.1351
     43 H8         -4.5767   -1.8382   -0.0660 H         1 <0>         0.0841
     44 H9         -4.3432   -1.5223    1.6668 H         1 <0>         0.0894
     45 H10        -2.5644    0.0519    1.2228 H         1 <0>         0.0928
     46 H11        -3.9328    0.4799    0.1736 H         1 <0>         0.0897
     47 H12        -1.7307   -5.6405    3.4190 H         1 <0>         0.3959
     48 H13        -2.9211   -3.1043   -2.5341 H         1 <0>         0.1425
     49 H14        -3.4389   -4.6440   -4.3773 H         1 <0>         0.1400
     50 H15         0.3638   -3.8155   -6.1539 H         1 <0>         0.1343
     51 H16         0.8898   -2.2651   -4.3221 H         1 <0>         0.1422
     52 H17        -0.6698   -4.3723   -7.8817 H         1 <0>         0.0890
     53 H18         0.0523   -5.7150   -6.9630 H         1 <0>         0.1122
     54 H19        -0.5774   -6.5157   -9.1891 H         1 <0>         0.1502
     55 H20        -1.6485   -7.2605   -7.9782 H         1 <0>         0.1437
     56 H21        -1.6725   -3.8477   -9.2099 H         1 <0>         0.1274
     57 H22        -1.4160   -4.8375  -10.6662 H         1 <0>         0.1308
     58 H23        -4.0798   -3.6443   -9.7723 H         1 <0>         0.0879
     59 H24        -3.0597   -3.0325  -11.0975 H         1 <0>         0.1126
     60 H25        -4.9132   -4.4968  -11.9272 H         1 <0>         0.0949
     61 H26        -3.3059   -5.1656  -12.3047 H         1 <0>         0.0822
     62 H27        -5.0935   -5.9725   -9.9639 H         1 <0>         0.0880
     63 H28        -4.7627   -6.9437  -11.4194 H         1 <0>         0.1133
     64 H29        -2.3519   -6.9870  -10.8431 H         1 <0>         0.1294
     65 H30        -3.3348   -7.6656   -9.5241 H         1 <0>         0.1313
     66 H31        -2.0835    4.6857   -4.1020 H         1 <0>         0.3958
     67 H32        -3.2379   -5.5103   -8.4679 H         1 <0>         0.4291
@<TRIPOS>BOND
     1    1    6 ar
     2    1    2 ar
     3    1   36 1
     4    2    3 ar
     5    2   37 1
     6    3    4 ar
     7    3   35 1
     8    4    5 ar
     9    4   38 1
    10    5    6 ar
    11    5   39 1
    12    6    7 1
    13    7   16 1
    14    7    8 2
    15    8    9 1
    16    8   18 1
    17    9   14 ar
    18    9   10 ar
    19   10   11 ar
    20   10   40 1
    21   11   12 ar
    22   11   41 1
    23   12   13 ar
    24   12   17 1
    25   13   14 ar
    26   13   42 1
    27   14   15 1
    28   15   16 1
    29   15   43 1
    30   15   44 1
    31   16   45 1
    32   16   46 1
    33   17   47 1
    34   18   19 2
    35   18   20 1
    36   20   25 ar
    37   20   21 ar
    38   21   22 ar
    39   21   48 1
    40   22   23 ar
    41   22   49 1
    42   23   24 ar
    43   23   26 1
    44   24   25 ar
    45   24   50 1
    46   25   51 1
    47   26   27 1
    48   27   28 1
    49   27   52 1
    50   27   53 1
    51   28   29 1
    52   28   54 1
    53   28   55 1
    54   29   34 1
    55   29   30 1
    56   29   67 1
    57   30   31 1
    58   30   56 1
    59   30   57 1
    60   31   32 1
    61   31   58 1
    62   31   59 1
    63   32   33 1
    64   32   60 1
    65   32   61 1
    66   33   34 1
    67   33   62 1
    68   33   63 1
    69   34   64 1
    70   34   65 1
    71   35   66 1
@<TRIPOS>MOLECULE
CHEMBL195212
   67    72     0     0     0
SMALL
USER_CHARGES

@<TRIPOS>ATOM
      1 C1          7.5396   -2.2416   -3.3434 C.ar      1 <0>        -0.1761
      2 C2          7.0990   -1.3238   -2.4075 C.ar      1 <0>        -0.0707
      3 C3          5.9793   -1.5953   -1.6459 C.ar      1 <0>        -0.1982
      4 C4          5.2957   -2.7918   -1.8208 C.ar      1 <0>         0.2233
      5 C5          5.7411   -3.7115   -2.7617 C.ar      1 <0>        -0.1972
      6 C6          6.8614   -3.4337   -3.5200 C.ar      1 <0>        -0.0704
      7 N1          4.1632   -3.0697   -1.0519 N.pl3     1 <0>        -0.6202
      8 C7          3.3555   -4.2779   -1.2875 C.3       1 <0>         0.1142
      9 C8          1.9679   -3.8327   -1.7466 C.3       1 <0>        -0.1032
     10 C9          1.4303   -2.7463   -0.8527 C.ar      1 <0>        -0.0467
     11 C10         0.0579   -2.5326   -0.8544 C.ar      1 <0>        -0.1478
     12 C11        -0.5011   -1.5441   -0.0634 C.ar      1 <0>         0.1145
     13 C12         0.3170   -0.7589    0.7364 C.ar      1 <0>        -0.1456
     14 C13         1.6786   -0.9745    0.7390 C.ar      1 <0>        -0.0890
     15 C14         2.2378   -1.9711   -0.0504 C.ar      1 <0>        -0.1002
     16 C15         3.7347   -2.1728    0.0267 C.3       1 <0>         0.2402
     17 C16         4.0955   -2.7808    1.3575 C.ar      1 <0>        -0.1240
     18 C17         5.0301   -2.1624    2.1678 C.ar      1 <0>        -0.0562
     19 C18         5.3630   -2.7168    3.3880 C.ar      1 <0>        -0.1838
     20 C19         4.7580   -3.8970    3.8012 C.ar      1 <0>         0.2019
     21 C20         3.8196   -4.5155    2.9848 C.ar      1 <0>        -0.1847
     22 C21         3.4871   -3.9527    1.7683 C.ar      1 <0>        -0.0531
     23 N2          5.0928   -4.4607    5.0345 N.pl3     1 <0>        -0.6431
     24 C22         4.5667   -5.7744    5.4395 C.3       1 <0>         0.1006
     25 C23         5.7494   -6.6440    5.8717 C.3       1 <0>        -0.0231
     26 N3          6.5132   -5.9639    6.9300 N.4       1 <0>        -0.3771
     27 C24         7.5750   -6.8792    7.3749 C.3       1 <0>        -0.0074
     28 C25         8.3704   -6.2506    8.5183 C.3       1 <0>        -0.1456
     29 C26         9.0114   -4.9521    8.0170 C.3       1 <0>        -0.1366
     30 C27         7.9044   -4.0233    7.5160 C.3       1 <0>        -0.1398
     31 C28         7.0973   -4.7208    6.4157 C.3       1 <0>         0.0165
     32 C29         5.9869   -3.7661    5.9700 C.3       1 <0>         0.1046
     33 O1         -1.8451   -1.3430   -0.0702 O.3       1 <0>        -0.4975
     34 H1          8.4128   -2.0249   -3.9408 H         1 <0>         0.1191
     35 H2          7.6312   -0.3939   -2.2718 H         1 <0>         0.1210
     36 H3          5.6359   -0.8783   -0.9149 H         1 <0>         0.1177
     37 H4          5.2120   -4.6428   -2.9000 H         1 <0>         0.1213
     38 H5          7.2083   -4.1483   -4.2517 H         1 <0>         0.1215
     39 H6          3.8217   -4.8881   -2.0610 H         1 <0>         0.0921
     40 H7          3.2721   -4.8516   -0.3645 H         1 <0>         0.0717
     41 H8          2.0314   -3.4577   -2.7681 H         1 <0>         0.0862
     42 H9          1.2906   -4.6863   -1.7204 H         1 <0>         0.0869
     43 H10        -0.5784   -3.1432   -1.4780 H         1 <0>         0.1299
     44 H11        -0.1107    0.0175    1.3535 H         1 <0>         0.1311
     45 H12         2.3162   -0.3631    1.3603 H         1 <0>         0.1257
     46 H13         4.2369   -1.2113   -0.0802 H         1 <0>         0.1038
     47 H14         5.5004   -1.2450    1.8458 H         1 <0>         0.1274
     48 H15         6.0933   -2.2336    4.0202 H         1 <0>         0.1231
     49 H16         3.3476   -5.4334    3.3029 H         1 <0>         0.1224
     50 H17         2.7544   -4.4307    1.1350 H         1 <0>         0.1283
     51 H18         3.8744   -5.6533    6.2727 H         1 <0>         0.0878
     52 H19         4.0540   -6.2413    4.5984 H         1 <0>         0.1265
     53 H20         5.3789   -7.5973    6.2486 H         1 <0>         0.1409
     54 H21         6.3989   -6.8231    5.0149 H         1 <0>         0.1314
     55 H22         7.1273   -7.8124    7.7169 H         1 <0>         0.1312
     56 H23         8.2450   -7.0875    6.5408 H         1 <0>         0.1271
     57 H24         7.7021   -6.0307    9.3508 H         1 <0>         0.0883
     58 H25         9.1490   -6.9404    8.8443 H         1 <0>         0.1135
     59 H26         9.5508   -4.4714    8.8332 H         1 <0>         0.0972
     60 H27         9.6993   -5.1747    7.2014 H         1 <0>         0.0823
     61 H28         7.2430   -3.7686    8.3441 H         1 <0>         0.0900
     62 H29         8.3495   -3.1121    7.1163 H         1 <0>         0.1131
     63 H30         7.7492   -4.9457    5.5716 H         1 <0>         0.1384
     64 H31         6.4288   -2.9004    5.4767 H         1 <0>         0.1249
     65 H32         5.4196   -3.4396    6.8416 H         1 <0>         0.0862
     66 H33        -2.3241   -1.8644    0.5885 H         1 <0>         0.3927
     67 H34         5.9017   -5.7535    7.7045 H         1 <0>         0.4204
@<TRIPOS>BOND
     1    1    6 ar
     2    1    2 ar
     3    1   34 1
     4    2    3 ar
     5    2   35 1
     6    3    4 ar
     7    3   36 1
     8    4    5 ar
     9    4    7 1
    10    5    6 ar
    11    5   37 1
    12    6   38 1
    13    7   16 1
    14    7    8 1
    15    8    9 1
    16    8   39 1
    17    8   40 1
    18    9   10 1
    19    9   41 1
    20    9   42 1
    21   10   15 ar
    22   10   11 ar
    23   11   12 ar
    24   11   43 1
    25   12   13 ar
    26   12   33 1
    27   13   14 ar
    28   13   44 1
    29   14   15 ar
    30   14   45 1
    31   15   16 1
    32   16   17 1
    33   16   46 1
    34   17   22 ar
    35   17   18 ar
    36   18   19 ar
    37   18   47 1
    38   19   20 ar
    39   19   48 1
    40   20   21 ar
    41   20   23 1
    42   21   22 ar
    43   21   49 1
    44   22   50 1
    45   23   32 1
    46   23   24 1
    47   24   25 1
    48   24   51 1
    49   24   52 1
    50   25   26 1
    51   25   53 1
    52   25   54 1
    53   26   31 1
    54   26   27 1
    55   26   67 1
    56   27   28 1
    57   27   55 1
    58   27   56 1
    59   28   29 1
    60   28   57 1
    61   28   58 1
    62   29   30 1
    63   29   59 1
    64   29   60 1
    65   30   31 1
    66   30   61 1
    67   30   62 1
    68   31   32 1
    69   31   63 1
    70   32   64 1
    71   32   65 1
    72   33   66 1
@<TRIPOS>MOLECULE
CHEMBL297052
   68    73     0     0     0
SMALL
USER_CHARGES

@<TRIPOS>ATOM
      1 C1          5.3714    0.4998   -5.4117 C.ar      1 <0>        -0.1179
      2 C2          5.3949    1.4802   -4.4239 C.ar      1 <0>        -0.0973
      3 C3          5.2111    1.1545   -3.1121 C.ar      1 <0>        -0.1205
      4 C4          4.9957   -0.1825   -2.7567 C.ar      1 <0>        -0.0001
      5 C5          4.9707   -1.1791   -3.7550 C.ar      1 <0>        -0.0724
      6 C6          5.1641   -0.8093   -5.0967 C.ar      1 <0>        -0.0866
      7 C7          4.7544   -2.5308   -3.4034 C.ar      1 <0>         0.1530
      8 C8          4.5694   -2.8731   -2.0976 C.ar      1 <0>        -0.1070
      9 C9          4.5876   -1.9188   -1.0884 C.ar      1 <0>        -0.1021
     10 C10         4.7950   -0.5565   -1.3435 C.ar      1 <0>        -0.0658
     11 C11         4.7829    0.3075   -0.1661 C.2       1 <0>        -0.1630
     12 C12         4.5715   -0.2848    1.0743 C.2       1 <0>        -0.0621
     13 S1          4.3875   -2.0110    0.6733 S.3       1 <0>         0.1276
     14 C13         4.5147    0.3591    2.3992 C.ar      1 <0>        -0.0416
     15 C14         3.7416    1.5087    2.5875 C.ar      1 <0>        -0.0735
     16 C15         3.6913    2.1066    3.8274 C.ar      1 <0>        -0.1414
     17 C16         4.4075    1.5692    4.8899 C.ar      1 <0>         0.1268
     18 C17         5.1775    0.4270    4.7074 C.ar      1 <0>        -0.1433
     19 C18         5.2291   -0.1814    3.4726 C.ar      1 <0>        -0.0735
     20 O1          4.3552    2.1623    6.1105 O.3       1 <0>        -0.4984
     21 C19         4.9874    1.7525   -0.2879 C.2       1 <0>         0.4659
     22 O2          4.0431    2.4831   -0.5280 O.2       1 <0>        -0.4316
     23 C20         6.3388    2.3237   -0.1195 C.ar      1 <0>        -0.1842
     24 C21         7.4414    1.4799    0.0387 C.ar      1 <0>        -0.0184
     25 C22         8.6999    2.0165    0.1949 C.ar      1 <0>        -0.1520
     26 C23         8.8744    3.3955    0.1959 C.ar      1 <0>         0.1486
     27 C24         7.7802    4.2383    0.0389 C.ar      1 <0>        -0.2146
     28 C25         6.5192    3.7095   -0.1237 C.ar      1 <0>        -0.0174
     29 O3         10.1163    3.9205    0.3511 O.3       1 <0>        -0.3239
     30 C26        10.2240    5.3454    0.3426 C.3       1 <0>         0.0227
     31 C27        11.6885    5.7473    0.5290 C.3       1 <0>        -0.0010
     32 N1         12.4772    5.2676   -0.6137 N.4       1 <0>        -0.3846
     33 C28        13.9019    5.5135   -0.3607 C.3       1 <0>        -0.0072
     34 C29        14.7341    4.9429   -1.5111 C.3       1 <0>        -0.1466
     35 C30        14.3214    5.6240   -2.8191 C.3       1 <0>        -0.1391
     36 C31        12.8185    5.4241   -3.0352 C.3       1 <0>        -0.1454
     37 C32        12.0573    5.9769   -1.8283 C.3       1 <0>        -0.0136
     38 O4          4.7304   -3.4882   -4.3670 O.3       1 <0>        -0.4843
     39 H1          5.5153    0.7818   -6.4443 H         1 <0>         0.1300
     40 H2          5.5611    2.5111   -4.6993 H         1 <0>         0.1264
     41 H3          5.2318    1.9225   -2.3531 H         1 <0>         0.1243
     42 H4          5.1488   -1.5590   -5.8740 H         1 <0>         0.1386
     43 H5          4.4046   -3.9093   -1.8416 H         1 <0>         0.1429
     44 H6          3.1852    1.9275    1.7621 H         1 <0>         0.1337
     45 H7          3.0944    2.9947    3.9739 H         1 <0>         0.1373
     46 H8          5.7328    0.0130    5.5360 H         1 <0>         0.1381
     47 H9          5.8240   -1.0718    3.3328 H         1 <0>         0.1346
     48 H10         3.6455    1.8320    6.6782 H         1 <0>         0.3986
     49 H11         7.3066    0.4083    0.0387 H         1 <0>         0.1409
     50 H12         9.5526    1.3650    0.3172 H         1 <0>         0.1409
     51 H13         7.9199    5.3092    0.0402 H         1 <0>         0.1358
     52 H14         5.6701    4.3649   -0.2498 H         1 <0>         0.1436
     53 H15         9.8596    5.7316   -0.6094 H         1 <0>         0.0893
     54 H16         9.6273    5.7598    1.1551 H         1 <0>         0.1127
     55 H17        11.7622    6.8330    0.5912 H         1 <0>         0.1505
     56 H18        12.0728    5.3038    1.4475 H         1 <0>         0.1436
     57 H19        14.0769    6.5866   -0.2837 H         1 <0>         0.1296
     58 H20        14.1934    5.0309    0.5722 H         1 <0>         0.1313
     59 H21        15.7915    5.1281   -1.3221 H         1 <0>         0.1133
     60 H22        14.5601    3.8697   -1.5888 H         1 <0>         0.0880
     61 H23        14.5427    6.6897   -2.7608 H         1 <0>         0.0823
     62 H24        14.8711    5.1813   -3.6498 H         1 <0>         0.0949
     63 H25        12.5067    5.9532   -3.9357 H         1 <0>         0.1125
     64 H26        12.6048    4.3609   -3.1445 H         1 <0>         0.0878
     65 H27        10.9870    5.8364   -1.9789 H         1 <0>         0.1271
     66 H28        12.2716    7.0401   -1.7200 H         1 <0>         0.1308
     67 H29         5.5944   -3.8807   -4.5531 H         1 <0>         0.3975
     68 H30        12.3250    4.2774   -0.7341 H         1 <0>         0.4291
@<TRIPOS>BOND
     1    1    6 ar
     2    1    2 ar
     3    1   39 1
     4    2    3 ar
     5    2   40 1
     6    3    4 ar
     7    3   41 1
     8    4   10 ar
     9    4    5 ar
    10    5    6 ar
    11    5    7 ar
    12    6   42 1
    13    7    8 ar
    14    7   38 1
    15    8    9 ar
    16    8   43 1
    17    9   13 1
    18    9   10 ar
    19   10   11 1
    20   11   12 2
    21   11   21 1
    22   12   13 1
    23   12   14 1
    24   14   19 ar
    25   14   15 ar
    26   15   16 ar
    27   15   44 1
    28   16   17 ar
    29   16   45 1
    30   17   18 ar
    31   17   20 1
    32   18   19 ar
    33   18   46 1
    34   19   47 1
    35   20   48 1
    36   21   22 2
    37   21   23 1
    38   23   28 ar
    39   23   24 ar
    40   24   25 ar
    41   24   49 1
    42   25   26 ar
    43   25   50 1
    44   26   27 ar
    45   26   29 1
    46   27   28 ar
    47   27   51 1
    48   28   52 1
    49   29   30 1
    50   30   31 1
    51   30   53 1
    52   30   54 1
    53   31   32 1
    54   31   55 1
    55   31   56 1
    56   32   37 1
    57   32   33 1
    58   32   68 1
    59   33   34 1
    60   33   57 1
    61   33   58 1
    62   34   35 1
    63   34   59 1
    64   34   60 1
    65   35   36 1
    66   35   61 1
    67   35   62 1
    68   36   37 1
    69   36   63 1
    70   36   64 1
    71   37   65 1
    72   37   66 1
    73   38   67 1
@<TRIPOS>MOLECULE
CHEMBL155044
   79    83     0     0     0
SMALL
USER_CHARGES

@<TRIPOS>ATOM
      1 C1         -0.0178    1.4608    0.0101 C.3       1 <0>         0.0580
      2 N1          0.0021   -0.0041    0.0020 N.pl3     1 <0>        -0.5549
      3 C2          0.0241   -0.7433    1.2666 C.3       1 <0>         0.1166
      4 C3         -1.4105   -1.0203    1.7205 C.3       1 <0>        -0.1307
      5 C4         -1.3875   -1.7923    3.0413 C.3       1 <0>        -0.0760
      6 C5         -2.8005   -2.0651    3.4884 C.ar      1 <0>        -0.0854
      7 C6         -3.4587   -1.1539    4.2931 C.ar      1 <0>        -0.1034
      8 C7         -4.7547   -1.4036    4.7034 C.ar      1 <0>        -0.1067
      9 C8         -5.3933   -2.5657    4.3087 C.ar      1 <0>        -0.0353
     10 C9         -4.7340   -3.4773    3.5034 C.ar      1 <0>        -0.1081
     11 C10        -3.4400   -3.2238    3.0890 C.ar      1 <0>        -0.1035
     12 Cl1        -7.0209   -2.8802    4.8242 Cl        1 <0>        -0.0619
     13 C11         0.0000   -0.6876   -1.1969 C.ar      1 <0>         0.6838
     14 N2         -0.0145   -0.0167   -2.3446 N.ar      1 <0>        -0.6388
     15 C12        -0.0165   -0.6751   -3.4993 C.ar      1 <0>         0.6938
     16 N3         -0.0039   -2.0045   -3.5066 N.ar      1 <0>        -0.6205
     17 C13         0.0110   -2.6753   -2.3592 C.ar      1 <0>         0.6744
     18 N4          0.0180   -2.0167   -1.2042 N.ar      1 <0>        -0.6154
     19 N5          0.0236   -4.0553   -2.3667 N.pl3     1 <0>        -0.5262
     20 C14         0.0341   -4.8170   -1.1086 C.3       1 <0>         0.1162
     21 C15        -1.0888   -5.8585   -1.1607 C.3       1 <0>         0.0392
     22 N6         -0.9453   -6.6680   -2.3781 N.3       1 <0>        -0.5327
     23 C16        -1.0957   -5.8453   -3.5858 C.3       1 <0>         0.0331
     24 C17         0.0206   -4.8033   -3.6331 C.3       1 <0>         0.1163
     25 C18        -1.8971   -7.7870   -2.3815 C.3       1 <0>         0.0946
     26 C19        -1.5617   -8.7283   -3.5095 C.ar      1 <0>        -0.0417
     27 C20        -2.1178   -8.5550   -4.7677 C.ar      1 <0>        -0.1730
     28 C21        -1.7869   -9.4383   -5.7778 C.ar      1 <0>         0.1022
     29 N7         -0.9538  -10.4360   -5.5553 N.ar      1 <0>        -0.4810
     30 C22        -0.4062  -10.6313   -4.3717 C.ar      1 <0>         0.1032
     31 C23        -0.6852   -9.7850   -3.3153 C.ar      1 <0>        -0.1505
     32 N8         -0.0320    0.0214   -4.6907 N.pl3     1 <0>        -0.6638
     33 C24        -0.0463    1.4863   -4.6827 C.3       1 <0>         0.0943
     34 C25        -0.0619    2.0041   -6.1224 C.3       1 <0>        -0.0847
     35 C26        -0.0766    3.5110   -6.1141 C.ar      1 <0>        -0.1114
     36 C27        -1.2813    4.1893   -6.0959 C.ar      1 <0>        -0.0936
     37 C28        -1.2975    5.5706   -6.0887 C.ar      1 <0>        -0.1429
     38 C29        -0.1036    6.2772   -6.0994 C.ar      1 <0>         0.1189
     39 C30         1.1038    5.5943   -6.1173 C.ar      1 <0>        -0.1427
     40 C31         1.1146    4.2128   -6.1191 C.ar      1 <0>        -0.0933
     41 O1         -0.1169    7.6362   -6.0929 O.3       1 <0>        -0.4970
     42 H1          1.0048    1.8381    0.0023 H         1 <0>         0.0894
     43 H2         -0.5450    1.8219   -0.8730 H         1 <0>         0.0722
     44 H3         -0.5280    1.8123    0.9069 H         1 <0>         0.1127
     45 H4          0.5496   -1.6879    1.1262 H         1 <0>         0.1072
     46 H5          0.5371   -0.1514    2.0246 H         1 <0>         0.1041
     47 H6         -1.9359   -0.0757    1.8610 H         1 <0>         0.0716
     48 H7         -1.9235   -1.6122    0.9626 H         1 <0>         0.0724
     49 H8         -0.8620   -2.7369    2.9008 H         1 <0>         0.0816
     50 H9         -0.8745   -1.2004    3.7993 H         1 <0>         0.0813
     51 H10        -2.9600   -0.2469    4.6014 H         1 <0>         0.1316
     52 H11        -5.2687   -0.6918    5.3324 H         1 <0>         0.1357
     53 H12        -5.2319   -4.3848    3.1952 H         1 <0>         0.1342
     54 H13        -2.9270   -3.9331    2.4564 H         1 <0>         0.1294
     55 H14         0.9944   -5.3194   -0.9927 H         1 <0>         0.0976
     56 H15        -0.1322   -4.1410   -0.2699 H         1 <0>         0.1118
     57 H16        -1.0266   -6.5045   -0.2850 H         1 <0>         0.1036
     58 H17        -2.0541   -5.3524   -1.1721 H         1 <0>         0.0455
     59 H18        -1.0386   -6.4818   -4.4689 H         1 <0>         0.1045
     60 H19        -2.0609   -5.3394   -3.5634 H         1 <0>         0.0448
     61 H20        -0.1545   -4.1183   -4.4626 H         1 <0>         0.1116
     62 H21         0.9797   -5.3044   -3.7646 H         1 <0>         0.0965
     63 H22        -1.8346   -8.3199   -1.4327 H         1 <0>         0.0955
     64 H23        -2.9083   -7.4034   -2.5168 H         1 <0>         0.0528
     65 H24        -2.8013   -7.7402   -4.9559 H         1 <0>         0.1303
     66 H25        -2.2158   -9.3101   -6.7606 H         1 <0>         0.1568
     67 H26         0.2715  -11.4597   -4.2273 H         1 <0>         0.1586
     68 H27        -0.2297   -9.9472   -2.3496 H         1 <0>         0.1368
     69 H28        -0.0334   -0.4590   -5.5334 H         1 <0>         0.4440
     70 H29        -0.9360    1.8381   -4.1604 H         1 <0>         0.0865
     71 H30         0.8438    1.8556   -4.1734 H         1 <0>         0.0875
     72 H31         0.8278    1.6523   -6.6447 H         1 <0>         0.0935
     73 H32        -0.9520    1.6348   -6.6317 H         1 <0>         0.0931
     74 H33        -2.2104    3.6388   -6.0876 H         1 <0>         0.1284
     75 H34        -2.2387    6.1000   -6.0752 H         1 <0>         0.1339
     76 H35         2.0345    6.1421   -6.1256 H         1 <0>         0.1341
     77 H36         2.0544    3.6807   -6.1285 H         1 <0>         0.1288
     78 H37        -0.1104    8.0253   -5.2077 H         1 <0>         0.3965
     79 H38        -0.0240    0.9532   -2.3393 H         1 <0>         0.4340
@<TRIPOS>BOND
     1    1    2 1
     2    1   42 1
     3    1   43 1
     4    1   44 1
     5    2    3 1
     6    2   13 1
     7    3    4 1
     8    3   45 1
     9    3   46 1
    10    4    5 1
    11    4   47 1
    12    4   48 1
    13    5    6 1
    14    5   49 1
    15    5   50 1
    16    6   11 ar
    17    6    7 ar
    18    7    8 ar
    19    7   51 1
    20    8    9 ar
    21    8   52 1
    22    9   10 ar
    23    9   12 1
    24   10   11 ar
    25   10   53 1
    26   11   54 1
    27   13   18 ar
    28   13   14 ar
    29   14   15 ar
    30   14   79 1
    31   15   16 ar
    32   15   32 1
    33   16   17 ar
    34   17   18 ar
    35   17   19 1
    36   19   24 1
    37   19   20 1
    38   20   21 1
    39   20   55 1
    40   20   56 1
    41   21   22 1
    42   21   57 1
    43   21   58 1
    44   22   23 1
    45   22   25 1
    46   23   24 1
    47   23   59 1
    48   23   60 1
    49   24   61 1
    50   24   62 1
    51   25   26 1
    52   25   63 1
    53   25   64 1
    54   26   31 ar
    55   26   27 ar
    56   27   28 ar
    57   27   65 1
    58   28   29 ar
    59   28   66 1
    60   29   30 ar
    61   30   31 ar
    62   30   67 1
    63   31   68 1
    64   32   33 1
    65   32   69 1
    66   33   34 1
    67   33   70 1
    68   33   71 1
    69   34   35 1
    70   34   72 1
    71   34   73 1
    72   35   40 ar
    73   35   36 ar
    74   36   37 ar
    75   36   74 1
    76   37   38 ar
    77   37   75 1
    78   38   39 ar
    79   38   41 1
    80   39   40 ar
    81   39   76 1
    82   40   77 1
    83   41   78 1
@<TRIPOS>MOLECULE
CHEMBL155044__1
   79    83     0     0     0
SMALL
USER_CHARGES

@<TRIPOS>ATOM
      1 C1         -0.0178    1.4608    0.0101 C.3       1 <0>         0.0992
      2 N1          0.0021   -0.0041    0.0020 N.pl3     1 <0>        -0.5707
      3 C2          0.0241   -0.7433    1.2666 C.3       1 <0>         0.1281
      4 C3         -1.4105   -1.0203    1.7205 C.3       1 <0>        -0.1255
      5 C4         -1.3875   -1.7923    3.0413 C.3       1 <0>        -0.0771
      6 C5         -2.8005   -2.0651    3.4884 C.ar      1 <0>        -0.0785
      7 C6         -3.4587   -1.1539    4.2931 C.ar      1 <0>        -0.1048
      8 C7         -4.7547   -1.4036    4.7034 C.ar      1 <0>        -0.1076
      9 C8         -5.3933   -2.5657    4.3087 C.ar      1 <0>        -0.0381
     10 C9         -4.7340   -3.4773    3.5034 C.ar      1 <0>        -0.1080
     11 C10        -3.4400   -3.2238    3.0890 C.ar      1 <0>        -0.1032
     12 Cl1        -7.0209   -2.8802    4.8242 Cl        1 <0>        -0.0669
     13 C11         0.0000   -0.6876   -1.1969 C.ar      1 <0>         0.6579
     14 N2          0.0126   -2.0171   -1.2042 N.ar      1 <0>        -0.6590
     15 C12         0.0106   -2.6754   -2.3589 C.ar      1 <0>         0.6589
     16 N3         -0.0039   -2.0045   -3.5066 N.ar      1 <0>        -0.6814
     17 C13        -0.0169   -0.6754   -3.4993 C.ar      1 <0>         0.6558
     18 N4         -0.0200   -0.0169   -2.3443 N.ar      1 <0>        -0.6770
     19 N5         -0.0315    0.0211   -4.6907 N.pl3     1 <0>        -0.5972
     20 C14        -0.0398    1.4921   -4.7069 C.3       1 <0>         0.1091
     21 C15         1.0694    1.9737   -5.6479 C.3       1 <0>        -0.0208
     22 N6          0.8954    1.3521   -6.9667 N.4       1 <0>        -0.3828
     23 C16         1.0705   -0.1019   -6.8613 C.3       1 <0>        -0.0268
     24 C17        -0.0330   -0.6864   -5.9805 C.3       1 <0>         0.1106
     25 C18         1.8918    1.8973   -7.8984 C.3       1 <0>         0.0431
     26 C19         1.6377    1.3533   -9.2806 C.ar      1 <0>        -0.1119
     27 C20         2.2326    0.1731   -9.6993 C.ar      1 <0>        -0.1551
     28 C21         1.9761   -0.2951  -10.9741 C.ar      1 <0>         0.1156
     29 N7          1.1771    0.3670  -11.7878 N.ar      1 <0>        -0.4580
     30 C22         0.5943    1.4925  -11.4235 C.ar      1 <0>         0.1165
     31 C23         0.7988    2.0183  -10.1618 C.ar      1 <0>        -0.1495
     32 N8          0.0241   -4.0554   -2.3664 N.pl3     1 <0>        -0.6829
     33 C24         0.0405   -4.7947   -1.1018 C.3       1 <0>         0.1419
     34 C25         0.0532   -6.2974   -1.3895 C.3       1 <0>        -0.0914
     35 C26         0.0701   -7.0579   -0.0886 C.ar      1 <0>        -0.0959
     36 C27         1.2759   -7.3895    0.5013 C.ar      1 <0>        -0.0950
     37 C28         1.2941   -8.0869    1.6936 C.ar      1 <0>        -0.1429
     38 C29         0.1013   -8.4543    2.2993 C.ar      1 <0>         0.1100
     39 C30        -1.1072   -8.1200    1.7056 C.ar      1 <0>        -0.1423
     40 C31        -1.1201   -7.4179    0.5159 C.ar      1 <0>        -0.0948
     41 O1          0.1166   -9.1409    3.4720 O.3       1 <0>        -0.4991
     42 H1          1.0048    1.8381    0.0023 H         1 <0>         0.0561
     43 H2         -0.5450    1.8219   -0.8730 H         1 <0>         0.0790
     44 H3         -0.5280    1.8123    0.9069 H         1 <0>         0.0745
     45 H4          0.5496   -1.6879    1.1262 H         1 <0>         0.0923
     46 H5          0.5371   -0.1514    2.0246 H         1 <0>         0.0826
     47 H6         -1.9359   -0.0757    1.8610 H         1 <0>         0.0645
     48 H7         -1.9235   -1.6122    0.9626 H         1 <0>         0.0684
     49 H8         -0.8620   -2.7369    2.9008 H         1 <0>         0.0782
     50 H9         -0.8745   -1.2004    3.7993 H         1 <0>         0.0772
     51 H10        -2.9600   -0.2469    4.6014 H         1 <0>         0.1310
     52 H11        -5.2687   -0.6918    5.3324 H         1 <0>         0.1341
     53 H12        -5.2319   -4.3848    3.1952 H         1 <0>         0.1330
     54 H13        -2.9270   -3.9331    2.4564 H         1 <0>         0.1296
     55 H14        -1.0052    1.8490   -5.0659 H         1 <0>         0.0922
     56 H15         0.1430    1.8705   -3.7012 H         1 <0>         0.1428
     57 H16         1.0164    3.0579   -5.7472 H         1 <0>         0.1459
     58 H17         2.0401    1.6931   -5.2391 H         1 <0>         0.1342
     59 H18         1.0183   -0.5473   -7.8548 H         1 <0>         0.1415
     60 H19         2.0412   -0.3197   -6.4158 H         1 <0>         0.1343
     61 H20         0.1544   -1.7476   -5.8164 H         1 <0>         0.1426
     62 H21        -0.9976   -0.5532   -6.4702 H         1 <0>         0.0905
     63 H22         1.8160    2.9845   -7.9161 H         1 <0>         0.1441
     64 H23         2.8908    1.6080   -7.5721 H         1 <0>         0.1405
     65 H24         2.8885   -0.3734   -9.0378 H         1 <0>         0.1456
     66 H25         2.4357   -1.2137  -11.3079 H         1 <0>         0.1698
     67 H26        -0.0537    2.0070  -12.1176 H         1 <0>         0.1700
     68 H27         0.3147    2.9378   -9.8675 H         1 <0>         0.1465
     69 H28         0.0226   -4.5359   -3.2091 H         1 <0>         0.4163
     70 H29         0.9321   -4.5258   -0.5353 H         1 <0>         0.0733
     71 H30        -0.8477   -4.5432   -0.5223 H         1 <0>         0.0736
     72 H31        -0.8384   -6.5663   -1.9560 H         1 <0>         0.0815
     73 H32         0.9415   -6.5489   -1.9690 H         1 <0>         0.0812
     74 H33         2.2042   -7.1033    0.0294 H         1 <0>         0.1263
     75 H34         2.2362   -8.3464    2.1536 H         1 <0>         0.1304
     76 H35        -2.0371   -8.4048    2.1752 H         1 <0>         0.1305
     77 H36        -2.0606   -7.1535    0.0556 H         1 <0>         0.1265
     78 H37         0.1129   -8.5773    4.2578 H         1 <0>         0.3937
     79 H38        -0.0307    1.5539   -7.3127 H         1 <0>         0.4235
@<TRIPOS>BOND
     1    1    2 1
     2    1   42 1
     3    1   43 1
     4    1   44 1
     5    2    3 1
     6    2   13 1
     7    3    4 1
     8    3   45 1
     9    3   46 1
    10    4    5 1
    11    4   47 1
    12    4   48 1
    13    5    6 1
    14    5   49 1
    15    5   50 1
    16    6   11 ar
    17    6    7 ar
    18    7    8 ar
    19    7   51 1
    20    8    9 ar
    21    8   52 1
    22    9   10 ar
    23    9   12 1
    24   10   11 ar
    25   10   53 1
    26   11   54 1
    27   13   18 ar
    28   13   14 ar
    29   14   15 ar
    30   15   16 ar
    31   15   32 1
    32   16   17 ar
    33   17   18 ar
    34   17   19 1
    35   19   24 1
    36   19   20 1
    37   20   21 1
    38   20   55 1
    39   20   56 1
    40   21   22 1
    41   21   57 1
    42   21   58 1
    43   22   23 1
    44   22   25 1
    45   22   79 1
    46   23   24 1
    47   23   59 1
    48   23   60 1
    49   24   61 1
    50   24   62 1
    51   25   26 1
    52   25   63 1
    53   25   64 1
    54   26   31 ar
    55   26   27 ar
    56   27   28 ar
    57   27   65 1
    58   28   29 ar
    59   28   66 1
    60   29   30 ar
    61   30   31 ar
    62   30   67 1
    63   31   68 1
    64   32   33 1
    65   32   69 1
    66   33   34 1
    67   33   70 1
    68   33   71 1
    69   34   35 1
    70   34   72 1
    71   34   73 1
    72   35   40 ar
    73   35   36 ar
    74   36   37 ar
    75   36   74 1
    76   37   38 ar
    77   37   75 1
    78   38   39 ar
    79   38   41 1
    80   39   40 ar
    81   39   76 1
    82   40   77 1
    83   41   78 1
@<TRIPOS>MOLECULE
CHEMBL155044__2
   78    82     0     0     0
SMALL
USER_CHARGES

@<TRIPOS>ATOM
      1 C1         -0.0178    1.4608    0.0101 C.3       1 <0>         0.1025
      2 N1          0.0021   -0.0041    0.0020 N.pl3     1 <0>        -0.5785
      3 C2          0.0241   -0.7433    1.2666 C.3       1 <0>         0.1332
      4 C3         -1.4105   -1.0203    1.7205 C.3       1 <0>        -0.1262
      5 C4         -1.3875   -1.7923    3.0413 C.3       1 <0>        -0.0774
      6 C5         -2.8005   -2.0651    3.4884 C.ar      1 <0>        -0.0745
      7 C6         -3.4587   -1.1539    4.2931 C.ar      1 <0>        -0.1053
      8 C7         -4.7547   -1.4036    4.7034 C.ar      1 <0>        -0.1084
      9 C8         -5.3933   -2.5657    4.3087 C.ar      1 <0>        -0.0396
     10 C9         -4.7340   -3.4773    3.5034 C.ar      1 <0>        -0.1080
     11 C10        -3.4400   -3.2238    3.0890 C.ar      1 <0>        -0.1026
     12 Cl1        -7.0209   -2.8802    4.8242 Cl        1 <0>        -0.0712
     13 C11         0.0000   -0.6876   -1.1969 C.ar      1 <0>         0.6531
     14 N2          0.0126   -2.0171   -1.2042 N.ar      1 <0>        -0.6719
     15 C12         0.0106   -2.6754   -2.3589 C.ar      1 <0>         0.6540
     16 N3         -0.0039   -2.0045   -3.5066 N.ar      1 <0>        -0.6821
     17 C13        -0.0169   -0.6754   -3.4993 C.ar      1 <0>         0.6571
     18 N4         -0.0200   -0.0169   -2.3443 N.ar      1 <0>        -0.6778
     19 N5         -0.0315    0.0211   -4.6907 N.pl3     1 <0>        -0.5760
     20 C14        -0.0399    1.4918   -4.7054 C.3       1 <0>         0.1344
     21 C15         1.0813    1.9758   -5.6311 C.3       1 <0>         0.0418
     22 N6          0.9335    1.3407   -6.9474 N.3       1 <0>        -0.5316
     23 C16         1.0820   -0.1179   -6.8550 C.3       1 <0>         0.0364
     24 C17        -0.0330   -0.6876   -5.9795 C.3       1 <0>         0.1348
     25 C18         1.8836    1.9064   -7.9145 C.3       1 <0>         0.0920
     26 C19         1.5439    1.4156   -9.2983 C.ar      1 <0>        -0.0347
     27 C20         2.0970    0.2438   -9.7914 C.ar      1 <0>        -0.1703
     28 C21         1.7622   -0.1751  -11.0652 C.ar      1 <0>         0.0994
     29 N7          0.9282    0.5258  -11.8083 N.ar      1 <0>        -0.4853
     30 C22         0.3834    1.6447  -11.3721 C.ar      1 <0>         0.0992
     31 C23         0.6664    2.1222  -10.1064 C.ar      1 <0>        -0.1513
     32 N8          0.0241   -4.0554   -2.3664 N.pl3     1 <0>        -0.6910
     33 C24         0.0405   -4.7947   -1.1018 C.3       1 <0>         0.1469
     34 C25         0.0532   -6.2974   -1.3895 C.3       1 <0>        -0.0935
     35 C26         0.0701   -7.0579   -0.0886 C.ar      1 <0>        -0.0896
     36 C27         1.2759   -7.3895    0.5013 C.ar      1 <0>        -0.0954
     37 C28         1.2941   -8.0869    1.6936 C.ar      1 <0>        -0.1430
     38 C29         0.1013   -8.4543    2.2993 C.ar      1 <0>         0.1050
     39 C30        -1.1072   -8.1200    1.7056 C.ar      1 <0>        -0.1426
     40 C31        -1.1201   -7.4179    0.5159 C.ar      1 <0>        -0.0953
     41 O1          0.1166   -9.1409    3.4720 O.3       1 <0>        -0.5003
     42 H1          1.0048    1.8381    0.0023 H         1 <0>         0.0524
     43 H2         -0.5450    1.8219   -0.8730 H         1 <0>         0.0806
     44 H3         -0.5280    1.8123    0.9069 H         1 <0>         0.0685
     45 H4          0.5496   -1.6879    1.1262 H         1 <0>         0.0897
     46 H5          0.5371   -0.1514    2.0246 H         1 <0>         0.0769
     47 H6         -1.9359   -0.0757    1.8610 H         1 <0>         0.0630
     48 H7         -1.9235   -1.6122    0.9626 H         1 <0>         0.0692
     49 H8         -0.8620   -2.7369    2.9008 H         1 <0>         0.0778
     50 H9         -0.8745   -1.2004    3.7993 H         1 <0>         0.0757
     51 H10        -2.9600   -0.2469    4.6014 H         1 <0>         0.1310
     52 H11        -5.2687   -0.6918    5.3324 H         1 <0>         0.1328
     53 H12        -5.2319   -4.3848    3.1952 H         1 <0>         0.1323
     54 H13        -2.9270   -3.9331    2.4564 H         1 <0>         0.1307
     55 H14        -1.0007    1.8488   -5.0762 H         1 <0>         0.0740
     56 H15         0.1296    1.8690   -3.6968 H         1 <0>         0.1037
     57 H16         1.0204    3.0586   -5.7408 H         1 <0>         0.0911
     58 H17         2.0473    1.7068   -5.2039 H         1 <0>         0.0401
     59 H18         1.0217   -0.5535   -7.8524 H         1 <0>         0.0916
     60 H19         2.0480   -0.3577   -6.4107 H         1 <0>         0.0392
     61 H20         0.1411   -1.7507   -5.8130 H         1 <0>         0.1033
     62 H21        -0.9931   -0.5442   -6.4752 H         1 <0>         0.0725
     63 H22         1.8228    2.9944   -7.8898 H         1 <0>         0.0909
     64 H23         2.8951    1.5930   -7.6560 H         1 <0>         0.0488
     65 H24         2.7812   -0.3342   -9.1879 H         1 <0>         0.1310
     66 H25         2.1888   -1.0868  -11.4567 H         1 <0>         0.1554
     67 H26        -0.2951    2.1919  -12.0097 H         1 <0>         0.1562
     68 H27         0.2131    3.0366   -9.7529 H         1 <0>         0.1358
     69 H28         0.0226   -4.5359   -3.2091 H         1 <0>         0.4144
     70 H29         0.9321   -4.5258   -0.5353 H         1 <0>         0.0692
     71 H30        -0.8477   -4.5432   -0.5223 H         1 <0>         0.0695
     72 H31        -0.8384   -6.5663   -1.9560 H         1 <0>         0.0812
     73 H32         0.9415   -6.5489   -1.9690 H         1 <0>         0.0810
     74 H33         2.2042   -7.1033    0.0294 H         1 <0>         0.1269
     75 H34         2.2362   -8.3464    2.1536 H         1 <0>         0.1290
     76 H35        -2.0371   -8.4048    2.1752 H         1 <0>         0.1291
     77 H36        -2.0606   -7.1535    0.0556 H         1 <0>         0.1270
     78 H37         0.1129   -8.5773    4.2578 H         1 <0>         0.3918
@<TRIPOS>BOND
     1    1    2 1
     2    1   42 1
     3    1   43 1
     4    1   44 1
     5    2    3 1
     6    2   13 1
     7    3    4 1
     8    3   45 1
     9    3   46 1
    10    4    5 1
    11    4   47 1
    12    4   48 1
    13    5    6 1
    14    5   49 1
    15    5   50 1
    16    6   11 ar
    17    6    7 ar
    18    7    8 ar
    19    7   51 1
    20    8    9 ar
    21    8   52 1
    22    9   10 ar
    23    9   12 1
    24   10   11 ar
    25   10   53 1
    26   11   54 1
    27   13   18 ar
    28   13   14 ar
    29   14   15 ar
    30   15   16 ar
    31   15   32 1
    32   16   17 ar
    33   17   18 ar
    34   17   19 1
    35   19   24 1
    36   19   20 1
    37   20   21 1
    38   20   55 1
    39   20   56 1
    40   21   22 1
    41   21   57 1
    42   21   58 1
    43   22   23 1
    44   22   25 1
    45   23   24 1
    46   23   59 1
    47   23   60 1
    48   24   61 1
    49   24   62 1
    50   25   26 1
    51   25   63 1
    52   25   64 1
    53   26   31 ar
    54   26   27 ar
    55   27   28 ar
    56   27   65 1
    57   28   29 ar
    58   28   66 1
    59   29   30 ar
    60   30   31 ar
    61   30   67 1
    62   31   68 1
    63   32   33 1
    64   32   69 1
    65   33   34 1
    66   33   70 1
    67   33   71 1
    68   34   35 1
    69   34   72 1
    70   34   73 1
    71   35   40 ar
    72   35   36 ar
    73   36   37 ar
    74   36   74 1
    75   37   38 ar
    76   37   75 1
    77   38   39 ar
    78   38   41 1
    79   39   40 ar
    80   39   76 1
    81   40   77 1
    82   41   78 1
@<TRIPOS>MOLECULE
CHEMBL155044__3
   80    84     0     0     0
SMALL
USER_CHARGES

@<TRIPOS>ATOM
      1 C1         -0.0178    1.4608    0.0101 C.3       1 <0>         0.0502
      2 N1          0.0021   -0.0041    0.0020 N.pl3     1 <0>        -0.5405
      3 C2          0.0241   -0.7433    1.2666 C.3       1 <0>         0.1115
      4 C3         -1.4105   -1.0203    1.7205 C.3       1 <0>        -0.1304
      5 C4         -1.3875   -1.7923    3.0413 C.3       1 <0>        -0.0747
      6 C5         -2.8005   -2.0651    3.4884 C.ar      1 <0>        -0.0896
      7 C6         -3.4587   -1.1539    4.2931 C.ar      1 <0>        -0.1011
      8 C7         -4.7547   -1.4036    4.7034 C.ar      1 <0>        -0.1032
      9 C8         -5.3933   -2.5657    4.3087 C.ar      1 <0>        -0.0337
     10 C9         -4.7340   -3.4773    3.5034 C.ar      1 <0>        -0.1099
     11 C10        -3.4400   -3.2238    3.0890 C.ar      1 <0>        -0.1071
     12 Cl1        -7.0209   -2.8802    4.8242 Cl        1 <0>        -0.0553
     13 C11         0.0000   -0.6876   -1.1969 C.ar      1 <0>         0.6883
     14 N2         -0.0145   -0.0167   -2.3446 N.ar      1 <0>        -0.6344
     15 C12        -0.0165   -0.6751   -3.4993 C.ar      1 <0>         0.7000
     16 N3         -0.0039   -2.0045   -3.5066 N.ar      1 <0>        -0.6256
     17 C13         0.0110   -2.6753   -2.3592 C.ar      1 <0>         0.6921
     18 N4          0.0180   -2.0167   -1.2042 N.ar      1 <0>        -0.6198
     19 N5          0.0236   -4.0553   -2.3667 N.pl3     1 <0>        -0.5663
     20 C14         0.0340   -4.8185   -1.1091 C.3       1 <0>         0.0947
     21 C15        -1.0770   -5.8719   -1.1711 C.3       1 <0>        -0.0226
     22 N6         -0.9073   -6.6905   -2.3782 N.4       1 <0>        -0.3860
     23 C16        -1.0843   -5.8589   -3.5753 C.3       1 <0>        -0.0288
     24 C17         0.0207   -4.8048   -3.6325 C.3       1 <0>         0.0965
     25 C18        -1.9053   -7.7684   -2.3810 C.3       1 <0>         0.0440
     26 C19        -1.6555   -8.6812   -3.5538 C.ar      1 <0>        -0.1181
     27 C20        -2.2533   -8.4395   -4.7813 C.ar      1 <0>        -0.1580
     28 C21        -2.0008   -9.2984   -5.8341 C.ar      1 <0>         0.1180
     29 N7         -1.2029  -10.3371   -5.6808 N.ar      1 <0>        -0.4538
     30 C22        -0.6174  -10.5977   -4.5283 C.ar      1 <0>         0.1205
     31 C23        -0.8179   -9.7795   -3.4326 C.ar      1 <0>        -0.1484
     32 N8         -0.0320    0.0214   -4.6907 N.pl3     1 <0>        -0.6498
     33 C24        -0.0463    1.4863   -4.6827 C.3       1 <0>         0.0876
     34 C25        -0.0619    2.0041   -6.1224 C.3       1 <0>        -0.0828
     35 C26        -0.0766    3.5110   -6.1141 C.ar      1 <0>        -0.1181
     36 C27        -1.2813    4.1893   -6.0959 C.ar      1 <0>        -0.0932
     37 C28        -1.2975    5.5706   -6.0887 C.ar      1 <0>        -0.1428
     38 C29        -0.1036    6.2772   -6.0994 C.ar      1 <0>         0.1242
     39 C30         1.1038    5.5943   -6.1173 C.ar      1 <0>        -0.1424
     40 C31         1.1146    4.2128   -6.1191 C.ar      1 <0>        -0.0928
     41 O1         -0.1169    7.6362   -6.0929 O.3       1 <0>        -0.4957
     42 H1          1.0048    1.8381    0.0023 H         1 <0>         0.0970
     43 H2         -0.5450    1.8219   -0.8730 H         1 <0>         0.0763
     44 H3         -0.5280    1.8123    0.9069 H         1 <0>         0.1195
     45 H4          0.5496   -1.6879    1.1262 H         1 <0>         0.1073
     46 H5          0.5371   -0.1514    2.0246 H         1 <0>         0.1104
     47 H6         -1.9359   -0.0757    1.8610 H         1 <0>         0.0755
     48 H7         -1.9235   -1.6122    0.9626 H         1 <0>         0.0703
     49 H8         -0.8620   -2.7369    2.9008 H         1 <0>         0.0790
     50 H9         -0.8745   -1.2004    3.7993 H         1 <0>         0.0839
     51 H10        -2.9600   -0.2469    4.6014 H         1 <0>         0.1332
     52 H11        -5.2687   -0.6918    5.3324 H         1 <0>         0.1385
     53 H12        -5.2319   -4.3848    3.1952 H         1 <0>         0.1335
     54 H13        -2.9270   -3.9331    2.4564 H         1 <0>         0.1241
     55 H14         0.9990   -5.3106   -0.9873 H         1 <0>         0.1126
     56 H15        -0.1457   -4.1455   -0.2707 H         1 <0>         0.1489
     57 H16        -1.0226   -6.5098   -0.2888 H         1 <0>         0.1568
     58 H17        -2.0470   -5.3758   -1.2018 H         1 <0>         0.1390
     59 H18        -1.0353   -6.4871   -4.4648 H         1 <0>         0.1528
     60 H19        -2.0541   -5.3631   -3.5333 H         1 <0>         0.1392
     61 H20        -0.1678   -4.1228   -4.4616 H         1 <0>         0.1487
     62 H21         0.9842   -5.2955   -3.7698 H         1 <0>         0.1110
     63 H22        -1.8280   -8.3376   -1.4547 H         1 <0>         0.1484
     64 H23        -2.9038   -7.3388   -2.4612 H         1 <0>         0.1430
     65 H24        -2.9083   -7.5909   -4.9128 H         1 <0>         0.1448
     66 H25        -2.4625   -9.1171   -6.7934 H         1 <0>         0.1711
     67 H26         0.0294  -11.4581   -4.4407 H         1 <0>         0.1723
     68 H27        -0.3317   -9.9953   -2.4927 H         1 <0>         0.1476
     69 H28        -0.0334   -0.4590   -5.5334 H         1 <0>         0.4465
     70 H29        -0.9360    1.8381   -4.1604 H         1 <0>         0.0920
     71 H30         0.8438    1.8556   -4.1734 H         1 <0>         0.0928
     72 H31         0.8278    1.6523   -6.6447 H         1 <0>         0.0942
     73 H32        -0.9520    1.6348   -6.6317 H         1 <0>         0.0937
     74 H33        -2.2104    3.6388   -6.0876 H         1 <0>         0.1278
     75 H34        -2.2387    6.1000   -6.0752 H         1 <0>         0.1354
     76 H35         2.0345    6.1421   -6.1256 H         1 <0>         0.1357
     77 H36         2.0544    3.6807   -6.1285 H         1 <0>         0.1284
     78 H37        -0.1104    8.0253   -5.2077 H         1 <0>         0.3984
     79 H38        -0.0240    0.9532   -2.3393 H         1 <0>         0.4405
     80 H39         0.0182   -7.0924   -2.3832 H         1 <0>         0.4270
@<TRIPOS>BOND
     1    1    2 1
     2    1   42 1
     3    1   43 1
     4    1   44 1
     5    2    3 1
     6    2   13 1
     7    3    4 1
     8    3   45 1
     9    3   46 1
    10    4    5 1
    11    4   47 1
    12    4   48 1
    13    5    6 1
    14    5   49 1
    15    5   50 1
    16    6   11 ar
    17    6    7 ar
    18    7    8 ar
    19    7   51 1
    20    8    9 ar
    21    8   52 1
    22    9   10 ar
    23    9   12 1
    24   10   11 ar
    25   10   53 1
    26   11   54 1
    27   13   18 ar
    28   13   14 ar
    29   14   15 ar
    30   14   79 1
    31   15   16 ar
    32   15   32 1
    33   16   17 ar
    34   17   18 ar
    35   17   19 1
    36   19   24 1
    37   19   20 1
    38   20   21 1
    39   20   55 1
    40   20   56 1
    41   21   22 1
    42   21   57 1
    43   21   58 1
    44   22   23 1
    45   22   25 1
    46   22   80 1
    47   23   24 1
    48   23   59 1
    49   23   60 1
    50   24   61 1
    51   24   62 1
    52   25   26 1
    53   25   63 1
    54   25   64 1
    55   26   31 ar
    56   26   27 ar
    57   27   28 ar
    58   27   65 1
    59   28   29 ar
    60   28   66 1
    61   29   30 ar
    62   30   31 ar
    63   30   67 1
    64   31   68 1
    65   32   33 1
    66   32   69 1
    67   33   34 1
    68   33   70 1
    69   33   71 1
    70   34   35 1
    71   34   72 1
    72   34   73 1
    73   35   40 ar
    74   35   36 ar
    75   36   37 ar
    76   36   74 1
    77   37   38 ar
    78   37   75 1
    79   38   39 ar
    80   38   41 1
    81   39   40 ar
    82   39   76 1
    83   40   77 1
    84   41   78 1
@<TRIPOS>MOLECULE
CHEMBL100617
   69    73     0     0     0
SMALL
USER_CHARGES

@<TRIPOS>ATOM
      1 C1         -0.7461    1.3979    1.0872 C.3       1 <0>        -0.1490
      2 C2         -0.4248    0.0145    0.5182 C.3       1 <0>         0.2861
      3 C3         -1.5601   -0.9301    0.8243 C.ar      1 <0>        -0.0903
      4 C4         -2.8511   -0.5021    0.5433 C.ar      1 <0>        -0.0997
      5 C5         -3.9314   -1.3221    0.7903 C.ar      1 <0>        -0.1475
      6 C6         -3.7259   -2.5867    1.3233 C.ar      1 <0>         0.1124
      7 C7         -2.4393   -3.0107    1.6067 C.ar      1 <0>        -0.1477
      8 C8         -1.3528   -2.1806    1.3627 C.ar      1 <0>        -0.0403
      9 C9          0.0149   -2.6992    1.7216 C.3       1 <0>        -0.1039
     10 C10         1.1026   -1.9236    0.9801 C.3       1 <0>         0.1374
     11 N1          0.8128   -0.4873    1.1248 N.pl3     1 <0>        -0.6654
     12 C11         1.6813    0.3631    1.8125 C.ar      1 <0>         0.1919
     13 C12         2.6500    1.0780    1.1183 C.ar      1 <0>        -0.1386
     14 C13         3.5087    1.9190    1.7986 C.ar      1 <0>        -0.0951
     15 C14         3.4071    2.0524    3.1705 C.ar      1 <0>        -0.1473
     16 C15         2.4415    1.3414    3.8691 C.ar      1 <0>         0.1156
     17 C16         1.5745    0.4999    3.1895 C.ar      1 <0>        -0.1495
     18 O1          2.3429    1.4737    5.2180 O.3       1 <0>        -0.4986
     19 O2         -4.7834   -3.4050    1.5663 O.3       1 <0>        -0.4975
     20 C17        -0.2464    0.1154   -0.9748 C.ar      1 <0>        -0.1010
     21 C18         0.9548   -0.2518   -1.5527 C.ar      1 <0>        -0.0650
     22 C19         1.1211   -0.1598   -2.9210 C.ar      1 <0>        -0.1416
     23 C20         0.0813    0.3012   -3.7155 C.ar      1 <0>         0.1094
     24 C21        -1.1231    0.6686   -3.1332 C.ar      1 <0>        -0.1998
     25 C22        -1.2861    0.5698   -1.7650 C.ar      1 <0>        -0.0744
     26 O3          0.2425    0.3930   -5.0617 O.3       1 <0>        -0.3286
     27 C23        -0.8704    0.8758   -5.8169 C.3       1 <0>         0.0261
     28 C24        -0.5031    0.9092   -7.3018 C.3       1 <0>        -0.0011
     29 N2         -0.2735   -0.4605   -7.7804 N.4       1 <0>        -0.3838
     30 C25        -1.5256   -1.2221   -7.6985 C.3       1 <0>        -0.0136
     31 C26        -1.2738   -2.6716   -8.1192 C.3       1 <0>        -0.1451
     32 C27        -0.7527   -2.6964   -9.5590 C.3       1 <0>        -0.1389
     33 C28         0.5124   -1.8380   -9.6484 C.3       1 <0>        -0.1467
     34 C29         0.1944   -0.4193   -9.1711 C.3       1 <0>        -0.0068
     35 H1          0.0853    2.0744    0.8888 H         1 <0>         0.0690
     36 H2         -1.6494    1.7842    0.6150 H         1 <0>         0.0685
     37 H3         -0.9030    1.3208    2.1631 H         1 <0>         0.0697
     38 H4         -3.0101    0.4820    0.1278 H         1 <0>         0.1264
     39 H5         -4.9326   -0.9818    0.5705 H         1 <0>         0.1301
     40 H6         -2.2789   -3.9951    2.0211 H         1 <0>         0.1293
     41 H7          0.1680   -2.5932    2.7956 H         1 <0>         0.0835
     42 H8          0.0804   -3.7536    1.4533 H         1 <0>         0.0830
     43 H9          2.0769   -2.1487    1.4139 H         1 <0>         0.0829
     44 H10         1.0960   -2.1967   -0.0751 H         1 <0>         0.0634
     45 H11         2.7315    0.9756    0.0462 H         1 <0>         0.1225
     46 H12         4.2614    2.4733    1.2575 H         1 <0>         0.1281
     47 H13         4.0803    2.7105    3.6997 H         1 <0>         0.1298
     48 H14         0.8197   -0.0510    3.7311 H         1 <0>         0.1275
     49 H15         1.7455    2.1793    5.5013 H         1 <0>         0.3931
     50 H16        -5.0196   -3.9742    0.8211 H         1 <0>         0.3917
     51 H17         1.7640   -0.6105   -0.9338 H         1 <0>         0.1426
     52 H18         2.0598   -0.4460   -3.3719 H         1 <0>         0.1309
     53 H19        -1.9340    1.0277   -3.7496 H         1 <0>         0.1259
     54 H20        -2.2250    0.8515   -1.3117 H         1 <0>         0.1312
     55 H21        -1.7243    0.2148   -5.6687 H         1 <0>         0.0853
     56 H22        -1.1271    1.8813   -5.4834 H         1 <0>         0.1085
     57 H23        -1.3184    1.3600   -7.8677 H         1 <0>         0.1484
     58 H24         0.4035    1.4987   -7.4387 H         1 <0>         0.1425
     59 H25        -1.8969   -1.2009   -6.6740 H         1 <0>         0.1274
     60 H26        -2.2663   -0.7752   -8.3618 H         1 <0>         0.1301
     61 H27        -0.5335   -3.1196   -7.4565 H         1 <0>         0.0878
     62 H28        -2.2050   -3.2350   -8.0595 H         1 <0>         0.1120
     63 H29        -0.5182   -3.7219   -9.8442 H         1 <0>         0.0947
     64 H30        -1.5133   -2.2954  -10.2289 H         1 <0>         0.0821
     65 H31         1.2898   -2.2686   -9.0174 H         1 <0>         0.0879
     66 H32         0.8579   -1.8054  -10.6817 H         1 <0>         0.1131
     67 H33        -0.5829    0.0105   -9.8029 H         1 <0>         0.1291
     68 H34         1.0929    0.1945   -9.2336 H         1 <0>         0.1310
     69 H35         0.4259   -0.9042   -7.2043 H         1 <0>         0.4293
@<TRIPOS>BOND
     1    1    2 1
     2    1   35 1
     3    1   36 1
     4    1   37 1
     5    2   11 1
     6    2    3 1
     7    2   20 1
     8    3    8 ar
     9    3    4 ar
    10    4    5 ar
    11    4   38 1
    12    5    6 ar
    13    5   39 1
    14    6    7 ar
    15    6   19 1
    16    7    8 ar
    17    7   40 1
    18    8    9 1
    19    9   10 1
    20    9   41 1
    21    9   42 1
    22   10   11 1
    23   10   43 1
    24   10   44 1
    25   11   12 1
    26   12   17 ar
    27   12   13 ar
    28   13   14 ar
    29   13   45 1
    30   14   15 ar
    31   14   46 1
    32   15   16 ar
    33   15   47 1
    34   16   17 ar
    35   16   18 1
    36   17   48 1
    37   18   49 1
    38   19   50 1
    39   20   25 ar
    40   20   21 ar
    41   21   22 ar
    42   21   51 1
    43   22   23 ar
    44   22   52 1
    45   23   24 ar
    46   23   26 1
    47   24   25 ar
    48   24   53 1
    49   25   54 1
    50   26   27 1
    51   27   28 1
    52   27   55 1
    53   27   56 1
    54   28   29 1
    55   28   57 1
    56   28   58 1
    57   29   34 1
    58   29   30 1
    59   29   69 1
    60   30   31 1
    61   30   59 1
    62   30   60 1
    63   31   32 1
    64   31   61 1
    65   31   62 1
    66   32   33 1
    67   32   63 1
    68   32   64 1
    69   33   34 1
    70   33   65 1
    71   33   66 1
    72   34   67 1
    73   34   68 1
@<TRIPOS>MOLECULE
CHEMBL100617__1
   69    73     0     0     0
SMALL
USER_CHARGES

@<TRIPOS>ATOM
      1 C1          1.6444    0.8033    0.0973 C.3       1 <0>        -0.1490
      2 C2          1.0586   -0.5968    0.2909 C.3       1 <0>         0.2865
      3 C3          1.6202   -1.5251   -0.7568 C.ar      1 <0>        -0.0910
      4 C4          1.6031   -1.0955   -2.0774 C.ar      1 <0>        -0.0999
      5 C5          2.0922   -1.9012   -3.0835 C.ar      1 <0>        -0.1468
      6 C6          2.6047   -3.1528   -2.7730 C.ar      1 <0>         0.1131
      7 C7          2.6249   -3.5782   -1.4562 C.ar      1 <0>        -0.1473
      8 C8          2.1372   -2.7624   -0.4433 C.ar      1 <0>        -0.0410
      9 C9          2.2169   -3.2809    0.9685 C.3       1 <0>        -0.1031
     10 C10         1.2442   -2.5326    1.8785 C.3       1 <0>         0.1371
     11 N1          1.4071   -1.0911    1.6271 N.pl3     1 <0>        -0.6659
     12 C11         1.8752   -0.2290    2.6212 C.ar      1 <0>         0.1933
     13 C12         0.9751    0.4640    3.4218 C.ar      1 <0>        -0.1387
     14 C13         1.4383    1.3165    4.4048 C.ar      1 <0>        -0.0955
     15 C14         2.7972    1.4825    4.5953 C.ar      1 <0>        -0.1476
     16 C15         3.7007    0.7928    3.7993 C.ar      1 <0>         0.1158
     17 C16         3.2401   -0.0675    2.8148 C.ar      1 <0>        -0.1503
     18 O1          5.0365    0.9571    3.9880 O.3       1 <0>        -0.4992
     19 O2          3.0842   -3.9575   -3.7577 O.3       1 <0>        -0.4996
     20 C17        -0.4410   -0.5362    0.1540 C.ar      1 <0>        -0.1011
     21 C18        -1.2465   -0.9162    1.2116 C.ar      1 <0>        -0.0653
     22 C19        -2.6213   -0.8621    1.0885 C.ar      1 <0>        -0.1418
     23 C20        -3.1937   -0.4256   -0.0975 C.ar      1 <0>         0.1095
     24 C21        -2.3833   -0.0445   -1.1571 C.ar      1 <0>        -0.1992
     25 C22        -1.0089   -0.0956   -1.0271 C.ar      1 <0>        -0.0737
     26 O3         -4.5460   -0.3719   -0.2213 O.3       1 <0>        -0.3292
     27 C23        -5.0654    0.0874   -1.4708 C.3       1 <0>         0.0262
     28 C24        -6.5945    0.0791   -1.4215 C.3       1 <0>        -0.0010
     29 N2         -7.0570    1.0348   -0.4063 N.4       1 <0>        -0.3838
     30 C25        -8.5114    0.9146   -0.2498 C.3       1 <0>        -0.0072
     31 C26        -8.9875    1.8502    0.8635 C.3       1 <0>        -0.1466
     32 C27        -8.6295    3.2936    0.4977 C.3       1 <0>        -0.1389
     33 C28        -7.1192    3.3909    0.2640 C.3       1 <0>        -0.1452
     34 C29        -6.7123    2.3982   -0.8270 C.3       1 <0>        -0.0130
     35 H1          2.7171    0.7781    0.2890 H         1 <0>         0.0713
     36 H2          1.4658    1.1336   -0.9260 H         1 <0>         0.0689
     37 H3          1.1676    1.4958    0.7910 H         1 <0>         0.0667
     38 H4          1.2028   -0.1219   -2.3184 H         1 <0>         0.1263
     39 H5          2.0763   -1.5602   -4.1081 H         1 <0>         0.1302
     40 H6          3.0232   -4.5525   -1.2141 H         1 <0>         0.1293
     41 H7          1.9695   -4.3424    0.9750 H         1 <0>         0.0834
     42 H8          3.2321   -3.1479    1.3424 H         1 <0>         0.0823
     43 H9          0.2213   -2.8333    1.6514 H         1 <0>         0.0641
     44 H10         1.4712   -2.7531    2.9215 H         1 <0>         0.0824
     45 H11        -0.0872    0.3361    3.2749 H         1 <0>         0.1223
     46 H12         0.7373    1.8548    5.0255 H         1 <0>         0.1275
     47 H13         3.1562    2.1501    5.3646 H         1 <0>         0.1295
     48 H14         3.9418   -0.6081    2.1970 H         1 <0>         0.1276
     49 H15         5.4234    0.3371    4.6212 H         1 <0>         0.3937
     50 H16         4.0259   -3.8363   -3.9409 H         1 <0>         0.3944
     51 H17        -0.8004   -1.2558    2.1347 H         1 <0>         0.1424
     52 H18        -3.2501   -1.1596    1.9147 H         1 <0>         0.1309
     53 H19        -2.8265    0.2955   -2.0814 H         1 <0>         0.1261
     54 H20        -0.3776    0.2052   -1.8501 H         1 <0>         0.1311
     55 H21        -4.7135    1.1016   -1.6598 H         1 <0>         0.0855
     56 H22        -4.7240   -0.5705   -2.2700 H         1 <0>         0.1085
     57 H23        -6.9910    0.3639   -2.3961 H         1 <0>         0.1485
     58 H24        -6.9444   -0.9209   -1.1652 H         1 <0>         0.1422
     59 H25        -9.0008    1.1854   -1.1854 H         1 <0>         0.1291
     60 H26        -8.7649   -0.1139    0.0074 H         1 <0>         0.1309
     61 H27       -10.0679    1.7608    0.9770 H         1 <0>         0.1130
     62 H28        -8.4990    1.5801    1.7997 H         1 <0>         0.0879
     63 H29        -9.1582    3.5811   -0.4111 H         1 <0>         0.0820
     64 H30        -8.9158    3.9579    1.3130 H         1 <0>         0.0947
     65 H31        -6.8641    4.4027   -0.0510 H         1 <0>         0.1122
     66 H32        -6.5918    3.1528    1.1878 H         1 <0>         0.0878
     67 H33        -5.6376    2.4651   -0.9961 H         1 <0>         0.1273
     68 H34        -7.2400    2.6373   -1.7503 H         1 <0>         0.1300
     69 H35        -6.6080    0.8321    0.4743 H         1 <0>         0.4293
@<TRIPOS>BOND
     1    1    2 1
     2    1   35 1
     3    1   36 1
     4    1   37 1
     5    2   11 1
     6    2    3 1
     7    2   20 1
     8    3    8 ar
     9    3    4 ar
    10    4    5 ar
    11    4   38 1
    12    5    6 ar
    13    5   39 1
    14    6    7 ar
    15    6   19 1
    16    7    8 ar
    17    7   40 1
    18    8    9 1
    19    9   10 1
    20    9   41 1
    21    9   42 1
    22   10   11 1
    23   10   43 1
    24   10   44 1
    25   11   12 1
    26   12   17 ar
    27   12   13 ar
    28   13   14 ar
    29   13   45 1
    30   14   15 ar
    31   14   46 1
    32   15   16 ar
    33   15   47 1
    34   16   17 ar
    35   16   18 1
    36   17   48 1
    37   18   49 1
    38   19   50 1
    39   20   25 ar
    40   20   21 ar
    41   21   22 ar
    42   21   51 1
    43   22   23 ar
    44   22   52 1
    45   23   24 ar
    46   23   26 1
    47   24   25 ar
    48   24   53 1
    49   25   54 1
    50   26   27 1
    51   27   28 1
    52   27   55 1
    53   27   56 1
    54   28   29 1
    55   28   57 1
    56   28   58 1
    57   29   34 1
    58   29   30 1
    59   29   69 1
    60   30   31 1
    61   30   59 1
    62   30   60 1
    63   31   32 1
    64   31   61 1
    65   31   62 1
    66   32   33 1
    67   32   63 1
    68   32   64 1
    69   33   34 1
    70   33   65 1
    71   33   66 1
    72   34   67 1
    73   34   68 1
@<TRIPOS>MOLECULE
CHEMBL181248
   71    75     0     0     0
SMALL
USER_CHARGES

@<TRIPOS>ATOM
      1 C1         -1.7571   -1.1793    2.2423 C.3       1 <0>        -0.1967
      2 C2         -1.4327   -2.1678    1.1204 C.3       1 <0>         0.0206
      3 H1         -2.2760   -2.2384    0.4333 H         1 <0>         0.1383
      4 C3         -1.1243   -3.5569    1.7176 C.3       1 <0>        -0.1369
      5 C4          0.0340   -4.0724    0.8235 C.3       1 <0>        -0.1441
      6 C5          0.8151   -2.7653    0.5391 C.3       1 <0>        -0.0143
      7 N1         -0.2292   -1.7241    0.3934 N.4       1 <0>        -0.3861
      8 C6          0.2518   -0.4571    0.9602 C.3       1 <0>         0.0216
      9 H2         -0.5979    0.1922    1.1714 H         1 <0>         0.1629
     10 C7          1.0154   -0.7355    2.2565 C.3       1 <0>        -0.1878
     11 C8          1.1817    0.2296   -0.0421 C.3       1 <0>         0.0339
     12 O1          2.3506   -0.5701   -0.2326 O.3       1 <0>        -0.3219
     13 C9          3.2857   -0.0993   -1.0991 C.ar      1 <0>         0.1212
     14 C10         3.0851    1.1102   -1.7483 C.ar      1 <0>        -0.2044
     15 C11         4.0373    1.5868   -2.6283 C.ar      1 <0>        -0.0618
     16 C12         5.1895    0.8592   -2.8627 C.ar      1 <0>        -0.1071
     17 C13         5.3916   -0.3468   -2.2173 C.ar      1 <0>        -0.0365
     18 C14         4.4452   -0.8247   -1.3317 C.ar      1 <0>        -0.1434
     19 C15         6.2264    1.3812   -3.8236 C.3       1 <0>         0.1418
     20 H3          5.7741    2.1185   -4.4868 H         1 <0>         0.0920
     21 C16         7.3770    2.0271   -3.0412 C.3       1 <0>        -0.0690
     22 H4          6.9848    2.8045   -2.3856 H         1 <0>         0.1056
     23 C17         8.3543    2.6434   -4.0453 C.3       1 <0>        -0.0426
     24 H5          9.2740    2.9231   -3.5315 H         1 <0>         0.0993
     25 C18         8.6690    1.6420   -5.1277 C.ar      1 <0>        -0.1776
     26 C19         7.8610    0.5402   -5.3480 C.ar      1 <0>         0.1555
     27 C20         8.1798   -0.3591   -6.3597 C.ar      1 <0>        -0.1421
     28 C21         9.2998   -0.1602   -7.1419 C.ar      1 <0>        -0.0806
     29 C22        10.1114    0.9410   -6.9200 C.ar      1 <0>         0.0463
     30 C23         9.7939    1.8412   -5.9127 C.ar      1 <0>         0.1108
     31 F1         10.5840    2.9156   -5.6964 F         1 <0>        -0.1230
     32 O2         11.2168    1.1391   -7.6879 O.3       1 <0>        -0.4836
     33 O3          6.7550    0.3012   -4.5942 O.3       1 <0>        -0.2939
     34 C24         7.7226    3.8879   -4.6723 C.3       1 <0>        -0.1488
     35 C25         8.0841    0.9796   -2.2203 C.ar      1 <0>        -0.0896
     36 C26         9.0699    0.2002   -2.7969 C.ar      1 <0>        -0.1014
     37 C27         9.7193   -0.7610   -2.0467 C.ar      1 <0>        -0.1413
     38 C28         9.3818   -0.9436   -0.7135 C.ar      1 <0>         0.1097
     39 C29         8.3926   -0.1601   -0.1372 C.ar      1 <0>        -0.1467
     40 C30         7.7499    0.8033   -0.8903 C.ar      1 <0>        -0.0892
     41 O4         10.0188   -1.8889    0.0265 O.3       1 <0>        -0.5009
     42 H6         -1.9125   -0.1871    1.8186 H         1 <0>         0.0828
     43 H7         -2.6620   -1.4997    2.7585 H         1 <0>         0.1035
     44 H8         -0.9278   -1.1467    2.9489 H         1 <0>         0.0959
     45 H9         -0.8003   -3.4673    2.7545 H         1 <0>         0.0992
     46 H10        -1.9924   -4.2115    1.6392 H         1 <0>         0.1122
     47 H11         0.6543   -4.7885    1.3625 H         1 <0>         0.1162
     48 H12        -0.3491   -4.5071   -0.0997 H         1 <0>         0.0968
     49 H13         1.4752   -2.5284    1.3735 H         1 <0>         0.1431
     50 H14         1.3874   -2.8585   -0.3839 H         1 <0>         0.1347
     51 H15         0.9890    0.1503    2.8911 H         1 <0>         0.1032
     52 H16         0.5507   -1.5713    2.7796 H         1 <0>         0.0898
     53 H17         2.0505   -0.9839    2.0222 H         1 <0>         0.0973
     54 H18         0.6647    0.3498   -0.9941 H         1 <0>         0.0849
     55 H19         1.4697    1.2085    0.3411 H         1 <0>         0.1081
     56 H20         2.1850    1.6786   -1.5661 H         1 <0>         0.1293
     57 H21         3.8816    2.5283   -3.1339 H         1 <0>         0.1322
     58 H22         6.2922   -0.9135   -2.4023 H         1 <0>         0.1379
     59 H23         4.6056   -1.7646   -0.8244 H         1 <0>         0.1328
     60 H24         7.5482   -1.2176   -6.5342 H         1 <0>         0.1443
     61 H25         9.5434   -0.8622   -7.9257 H         1 <0>         0.1496
     62 H26        11.0547    1.6666   -8.4820 H         1 <0>         0.3931
     63 H27         7.4978    4.6140   -3.8911 H         1 <0>         0.0685
     64 H28         8.4181    4.3272   -5.3874 H         1 <0>         0.0670
     65 H29         6.8021    3.6090   -5.1850 H         1 <0>         0.0580
     66 H30         9.3323    0.3428   -3.8348 H         1 <0>         0.1372
     67 H31        10.4888   -1.3699   -2.4978 H         1 <0>         0.1288
     68 H32         8.1281   -0.3004    0.9005 H         1 <0>         0.1270
     69 H33         6.9828    1.4166   -0.4409 H         1 <0>         0.1216
     70 H34        10.8122   -1.5675    0.4764 H         1 <0>         0.3940
     71 H35        -0.4501   -1.5959   -0.5827 H         1 <0>         0.4231
@<TRIPOS>BOND
     1    1    2 1
     2    1   42 1
     3    1   43 1
     4    1   44 1
     5    2    3 1
     6    2    7 1
     7    2    4 1
     8    4    5 1
     9    4   45 1
    10    4   46 1
    11    5    6 1
    12    5   47 1
    13    5   48 1
    14    6    7 1
    15    6   49 1
    16    6   50 1
    17    7    8 1
    18    7   71 1
    19    8    9 1
    20    8   10 1
    21    8   11 1
    22   10   51 1
    23   10   52 1
    24   10   53 1
    25   11   12 1
    26   11   54 1
    27   11   55 1
    28   12   13 1
    29   13   18 ar
    30   13   14 ar
    31   14   15 ar
    32   14   56 1
    33   15   16 ar
    34   15   57 1
    35   16   17 ar
    36   16   19 1
    37   17   18 ar
    38   17   58 1
    39   18   59 1
    40   19   20 1
    41   19   33 1
    42   19   21 1
    43   21   22 1
    44   21   23 1
    45   21   35 1
    46   23   24 1
    47   23   25 1
    48   23   34 1
    49   25   30 ar
    50   25   26 ar
    51   26   27 ar
    52   26   33 1
    53   27   28 ar
    54   27   60 1
    55   28   29 ar
    56   28   61 1
    57   29   30 ar
    58   29   32 1
    59   30   31 1
    60   32   62 1
    61   34   63 1
    62   34   64 1
    63   34   65 1
    64   35   40 ar
    65   35   36 ar
    66   36   37 ar
    67   36   66 1
    68   37   38 ar
    69   37   67 1
    70   38   39 ar
    71   38   41 1
    72   39   40 ar
    73   39   68 1
    74   40   69 1
    75   41   70 1
@<TRIPOS>MOLECULE
CHEMBL371012
   37    40     0     0     0
SMALL
USER_CHARGES

@<TRIPOS>ATOM
      1 C1          0.1782    1.6796   -0.4270 C.ar      1 <0>        -0.1092
      2 C2          0.7699    1.1761   -1.5721 C.ar      1 <0>        -0.1171
      3 C3          1.9259    0.4289   -1.4835 C.ar      1 <0>        -0.0844
      4 C4          2.4992    0.1809   -0.2342 C.ar      1 <0>        -0.0371
      5 C5          1.8965    0.6923    0.9174 C.ar      1 <0>        -0.1060
      6 C6          0.7407    1.4379    0.8139 C.ar      1 <0>        -0.1181
      7 C7          3.7361   -0.6184   -0.1314 C.2       1 <0>         0.1350
      8 C8          3.9688   -1.8164   -0.7728 C.2       1 <0>        -0.1197
      9 C9          5.3190   -2.2447   -0.3804 C.ar      1 <0>        -0.0897
     10 C10         6.1071   -3.3536   -0.6925 C.ar      1 <0>        -0.0687
     11 C11         7.3572   -3.4719   -0.1533 C.ar      1 <0>        -0.1426
     12 C12         7.8495   -2.4969    0.7032 C.ar      1 <0>        -0.0958
     13 C13         7.0882   -1.3945    1.0244 C.ar      1 <0>        -0.1298
     14 C14         5.8120   -1.2537    0.4865 C.ar      1 <0>         0.1018
     15 N1          4.8413   -0.2834    0.6145 N.pl3     1 <0>        -0.5842
     16 H1          4.9250    0.5181    1.1543 H         1 <0>         0.4171
     17 C15         3.0411   -2.5310   -1.6781 C.ar      1 <0>        -0.0121
     18 C16         1.8472   -3.0572   -1.1830 C.ar      1 <0>        -0.0854
     19 C17         0.9856   -3.7223   -2.0295 C.ar      1 <0>        -0.1423
     20 C18         1.3046   -3.8688   -3.3727 C.ar      1 <0>         0.1030
     21 C19         2.4914   -3.3467   -3.8690 C.ar      1 <0>        -0.1433
     22 C20         3.3555   -2.6753   -3.0300 C.ar      1 <0>        -0.0916
     23 O1          0.4529   -4.5254   -4.2039 O.3       1 <0>        -0.5004
     24 H2         -0.7244    2.2678   -0.5026 H         1 <0>         0.1255
     25 H3          0.3253    1.3683   -2.5374 H         1 <0>         0.1273
     26 H4          2.3865    0.0362   -2.3780 H         1 <0>         0.1268
     27 H5          2.3343    0.5040    1.8866 H         1 <0>         0.1217
     28 H6          0.2736    1.8339    1.7035 H         1 <0>         0.1266
     29 H7          5.7299   -4.1161   -1.3580 H         1 <0>         0.1223
     30 H8          7.9663   -4.3304   -0.3949 H         1 <0>         0.1242
     31 H9          8.8391   -2.6037    1.1223 H         1 <0>         0.1268
     32 H10         7.4806   -0.6413    1.6915 H         1 <0>         0.1213
     33 H11         1.5986   -2.9439   -0.1381 H         1 <0>         0.1238
     34 H12         0.0616   -4.1302   -1.6470 H         1 <0>         0.1283
     35 H13         2.7361   -3.4627   -4.9145 H         1 <0>         0.1292
     36 H14         4.2763   -2.2652   -3.4178 H         1 <0>         0.1268
     37 H15        -0.2041   -3.9544   -4.6250 H         1 <0>         0.3901
@<TRIPOS>BOND
     1    1    6 ar
     2    1    2 ar
     3    1   24 1
     4    2    3 ar
     5    2   25 1
     6    3    4 ar
     7    3   26 1
     8    4    5 ar
     9    4    7 1
    10    5    6 ar
    11    5   27 1
    12    6   28 1
    13    7   15 1
    14    7    8 2
    15    8    9 1
    16    8   17 1
    17    9   14 ar
    18    9   10 ar
    19   10   11 ar
    20   10   29 1
    21   11   12 ar
    22   11   30 1
    23   12   13 ar
    24   12   31 1
    25   13   14 ar
    26   13   32 1
    27   14   15 1
    28   15   16 1
    29   17   22 ar
    30   17   18 ar
    31   18   19 ar
    32   18   33 1
    33   19   20 ar
    34   19   34 1
    35   20   21 ar
    36   20   23 1
    37   21   22 ar
    38   21   35 1
    39   22   36 1
    40   23   37 1
@<TRIPOS>MOLECULE
CHEMBL81
   62    66     0     0     0
SMALL
USER_CHARGES

@<TRIPOS>ATOM
      1 C1         -1.0560   -3.6471   -2.9834 C.ar      1 <0>        -0.0731
      2 C2         -0.5292   -3.8209   -4.2441 C.ar      1 <0>        -0.1418
      3 C3         -0.2617   -2.7179   -5.0458 C.ar      1 <0>         0.1273
      4 C4         -0.5240   -1.4352   -4.5802 C.ar      1 <0>        -0.1436
      5 C5         -1.0507   -1.2517   -3.3208 C.ar      1 <0>        -0.0726
      6 C6         -1.3215   -2.3585   -2.5107 C.ar      1 <0>        -0.0443
      7 C7         -1.8857   -2.1673   -1.1621 C.2       1 <0>        -0.0491
      8 C8         -1.4781   -2.7470    0.0324 C.2       1 <0>        -0.1672
      9 C9         -2.2084   -2.3914    1.2518 C.ar      1 <0>        -0.0733
     10 C10        -1.9811   -2.8478    2.5699 C.ar      1 <0>        -0.0620
     11 C11        -2.7636   -2.4131    3.6070 C.ar      1 <0>        -0.1362
     12 C12        -3.8034   -1.5118    3.3971 C.ar      1 <0>         0.1376
     13 C13        -4.0502   -1.0462    2.1156 C.ar      1 <0>        -0.0999
     14 C14        -3.2654   -1.4805    1.0680 C.ar      1 <0>        -0.1027
     15 S1         -3.2496   -1.1310   -0.6716 S.3       1 <0>         0.0989
     16 O1         -4.5695   -1.0928    4.4389 O.3       1 <0>        -0.4890
     17 C15        -0.3552   -3.6836    0.0717 C.2       1 <0>         0.4632
     18 O2         -0.5599   -4.8828    0.0108 O.2       1 <0>        -0.4303
     19 C16         1.0269   -3.1752    0.1852 C.ar      1 <0>        -0.1819
     20 C17         1.2584   -1.8082    0.3588 C.ar      1 <0>        -0.0197
     21 C18         2.5485   -1.3381    0.4641 C.ar      1 <0>        -0.1529
     22 C19         3.6196   -2.2215    0.3980 C.ar      1 <0>         0.1478
     23 C20         3.3936   -3.5820    0.2249 C.ar      1 <0>        -0.2153
     24 C21         2.1062   -4.0607    0.1249 C.ar      1 <0>        -0.0165
     25 O3          4.8897   -1.7543    0.5022 O.3       1 <0>        -0.3241
     26 C22         5.9433   -2.7167    0.4259 C.3       1 <0>         0.0227
     27 C23         7.2923   -2.0079    0.5623 C.3       1 <0>        -0.0010
     28 N1          7.3928   -1.3985    1.8951 N.4       1 <0>        -0.3845
     29 C24         8.6181   -0.5941    1.9726 C.3       1 <0>        -0.0072
     30 C25         8.6868    0.1080    3.3305 C.3       1 <0>        -0.1466
     31 C26         8.6938   -0.9442    4.4432 C.3       1 <0>        -0.1392
     32 C27         7.4482   -1.8247    4.3075 C.3       1 <0>        -0.1453
     33 C28         7.4253   -2.4551    2.9134 C.3       1 <0>        -0.0137
     34 O4          0.2580   -2.8940   -6.2879 O.3       1 <0>        -0.4983
     35 H1         -1.2677   -4.5052   -2.3627 H         1 <0>         0.1336
     36 H2         -0.3235   -4.8160   -4.6100 H         1 <0>         0.1374
     37 H3         -0.3141   -0.5808   -5.2066 H         1 <0>         0.1382
     38 H4         -1.2542   -0.2544   -2.9597 H         1 <0>         0.1348
     39 H5         -1.1813   -3.5477    2.7618 H         1 <0>         0.1270
     40 H6         -2.5705   -2.7766    4.6055 H         1 <0>         0.1391
     41 H7         -4.8538   -0.3469    1.9378 H         1 <0>         0.1433
     42 H8         -4.2357   -0.2987    4.8782 H         1 <0>         0.3978
     43 H9          0.4267   -1.1211    0.4099 H         1 <0>         0.1415
     44 H10         2.7283   -0.2816    0.5980 H         1 <0>         0.1408
     45 H11         4.2285   -4.2651    0.1733 H         1 <0>         0.1355
     46 H12         1.9312   -5.1186   -0.0043 H         1 <0>         0.1432
     47 H13         5.8313   -3.4427    1.2312 H         1 <0>         0.0893
     48 H14         5.8979   -3.2297   -0.5348 H         1 <0>         0.1127
     49 H15         8.0975   -2.7309    0.4318 H         1 <0>         0.1504
     50 H16         7.3737   -1.2321   -0.1990 H         1 <0>         0.1436
     51 H17         9.4861   -1.2428    1.8552 H         1 <0>         0.1295
     52 H18         8.6132    0.1521    1.1781 H         1 <0>         0.1314
     53 H19         9.5982    0.7032    3.3868 H         1 <0>         0.1133
     54 H20         7.8194    0.7572    3.4489 H         1 <0>         0.0880
     55 H21         9.5878   -1.5615    4.3556 H         1 <0>         0.0823
     56 H22         8.6856   -0.4483    5.4139 H         1 <0>         0.0949
     57 H23         7.4742   -2.6108    5.0621 H         1 <0>         0.1125
     58 H24         6.5550   -1.2155    4.4462 H         1 <0>         0.0878
     59 H25         6.5398   -3.0828    2.8135 H         1 <0>         0.1272
     60 H26         8.3188   -3.0642    2.7759 H         1 <0>         0.1308
     61 H27        -0.4076   -2.9906   -6.9827 H         1 <0>         0.3988
     62 H28         6.5925   -0.8047    2.0535 H         1 <0>         0.4291
@<TRIPOS>BOND
     1    1    6 ar
     2    1    2 ar
     3    1   35 1
     4    2    3 ar
     5    2   36 1
     6    3    4 ar
     7    3   34 1
     8    4    5 ar
     9    4   37 1
    10    5    6 ar
    11    5   38 1
    12    6    7 1
    13    7   15 1
    14    7    8 2
    15    8    9 1
    16    8   17 1
    17    9   14 ar
    18    9   10 ar
    19   10   11 ar
    20   10   39 1
    21   11   12 ar
    22   11   40 1
    23   12   13 ar
    24   12   16 1
    25   13   14 ar
    26   13   41 1
    27   14   15 1
    28   16   42 1
    29   17   18 2
    30   17   19 1
    31   19   24 ar
    32   19   20 ar
    33   20   21 ar
    34   20   43 1
    35   21   22 ar
    36   21   44 1
    37   22   23 ar
    38   22   25 1
    39   23   24 ar
    40   23   45 1
    41   24   46 1
    42   25   26 1
    43   26   27 1
    44   26   47 1
    45   26   48 1
    46   27   28 1
    47   27   49 1
    48   27   50 1
    49   28   33 1
    50   28   29 1
    51   28   62 1
    52   29   30 1
    53   29   51 1
    54   29   52 1
    55   30   31 1
    56   30   53 1
    57   30   54 1
    58   31   32 1
    59   31   55 1
    60   31   56 1
    61   32   33 1
    62   32   57 1
    63   32   58 1
    64   33   59 1
    65   33   60 1
    66   34   61 1
@<TRIPOS>MOLECULE
CHEMBL388418
   34    36     0     0     0
SMALL
USER_CHARGES

@<TRIPOS>ATOM
      1 C1         -0.0184    1.5028    0.0103 C.3       1 <0>        -0.1049
      2 C2          0.0021   -0.0041    0.0020 C.2       1 <0>         0.1397
      3 C3          0.0080   -0.7815   -1.1154 C.2       1 <0>        -0.1501
      4 C4          0.0295   -2.1812   -0.6541 C.ar      1 <0>        -0.0715
      5 C5          0.0434   -3.4134   -1.3044 C.ar      1 <0>        -0.0655
      6 C6          0.0623   -4.5748   -0.5643 C.ar      1 <0>        -0.1389
      7 C7          0.0677   -4.5218    0.8225 C.ar      1 <0>        -0.0980
      8 C8          0.0541   -3.3106    1.4787 C.ar      1 <0>        -0.1223
      9 C9          0.0348   -2.1262    0.7494 C.ar      1 <0>         0.0944
     10 N1          0.0233   -0.7939    1.1113 N.pl3     1 <0>        -0.4266
     11 C10         0.0290   -0.3218    2.4313 C.ar      1 <0>         0.1065
     12 C11         1.1322   -0.5458    3.2443 C.ar      1 <0>        -0.0904
     13 C12         1.1373   -0.0802    4.5442 C.ar      1 <0>        -0.1314
     14 C13         0.0404    0.6109    5.0381 C.ar      1 <0>         0.1187
     15 C14        -1.0621    0.8350    4.2264 C.ar      1 <0>        -0.1317
     16 C15        -1.0662    0.3749    2.9245 C.ar      1 <0>        -0.0934
     17 O1          0.0458    1.0683    6.3184 O.3       1 <0>        -0.4962
     18 C16        -0.0046   -0.3156   -2.5109 C.2       1 <0>         0.1838
     19 N2          0.0031   -1.1749   -3.4810 N.2       1 <0>        -0.3400
     20 O2         -0.0090   -0.7265   -4.8241 O.3       1 <0>        -0.4173
     21 H1          1.0042    1.8801    0.0026 H         1 <0>         0.0872
     22 H2         -0.5455    1.8639   -0.8728 H         1 <0>         0.0914
     23 H3         -0.5286    1.8543    0.9071 H         1 <0>         0.0768
     24 H4          0.0389   -3.4575   -2.3835 H         1 <0>         0.1324
     25 H5          0.0728   -5.5314   -1.0656 H         1 <0>         0.1259
     26 H6          0.0822   -5.4389    1.3927 H         1 <0>         0.1278
     27 H7          0.0587   -3.2806    2.5583 H         1 <0>         0.1202
     28 H8          1.9858   -1.0843    2.8601 H         1 <0>         0.1350
     29 H9          1.9953   -0.2543    5.1766 H         1 <0>         0.1400
     30 H10        -1.9158    1.3727    4.6116 H         1 <0>         0.1401
     31 H11        -1.9227    0.5532    2.2913 H         1 <0>         0.1355
     32 H12         0.4035    1.9614    6.4155 H         1 <0>         0.3964
     33 H13        -0.0202    0.7425   -2.7268 H         1 <0>         0.1214
     34 H14        -0.0019   -1.4398   -5.4770 H         1 <0>         0.4050
@<TRIPOS>BOND
     1    1    2 1
     2    1   21 1
     3    1   22 1
     4    1   23 1
     5    2   10 1
     6    2    3 2
     7    3    4 1
     8    3   18 1
     9    4    9 ar
    10    4    5 ar
    11    5    6 ar
    12    5   24 1
    13    6    7 ar
    14    6   25 1
    15    7    8 ar
    16    7   26 1
    17    8    9 ar
    18    8   27 1
    19    9   10 1
    20   10   11 1
    21   11   16 ar
    22   11   12 ar
    23   12   13 ar
    24   12   28 1
    25   13   14 ar
    26   13   29 1
    27   14   15 ar
    28   14   17 1
    29   15   16 ar
    30   15   30 1
    31   16   31 1
    32   17   32 1
    33   18   19 2
    34   18   33 1
    35   19   20 1
    36   20   34 1
@<TRIPOS>MOLECULE
CHEMBL394357
   30    32     0     0     0
SMALL
USER_CHARGES

@<TRIPOS>ATOM
      1 C1         -0.0168    1.3913    0.0097 C.ar      1 <0>        -0.0839
      2 C2          1.1685    2.0950    0.0022 C.ar      1 <0>        -0.1437
      3 C3          2.3804    1.4171   -0.0131 C.ar      1 <0>         0.1123
      4 C4          2.4031    0.0286   -0.0212 C.ar      1 <0>        -0.1443
      5 C5          1.2218   -0.6819   -0.0142 C.ar      1 <0>        -0.0846
      6 C6          0.0021   -0.0041    0.0020 C.ar      1 <0>        -0.0660
      7 C7         -1.2686   -0.7634    0.0101 C.ar      1 <0>         0.0176
      8 C8         -2.2470   -0.4519    0.9394 C.ar      1 <0>        -0.1175
      9 C9         -3.4450   -1.1363    0.9801 C.ar      1 <0>        -0.0563
     10 C10        -3.6803   -2.1665    0.0652 C.ar      1 <0>        -0.0206
     11 C11        -2.7039   -2.4883   -0.8744 C.ar      1 <0>        -0.0895
     12 C12        -1.4747   -1.8038   -0.9428 C.ar      1 <0>        -0.0816
     13 C13        -0.5777   -2.2683   -1.9884 C.2       1 <0>        -0.1450
     14 C14        -0.9656   -3.2727   -2.7890 C.2       1 <0>        -0.1663
     15 S1         -2.5892   -3.6852   -2.1791 S.3       1 <0>         0.0877
     16 C15        -4.9529   -2.9074    0.0948 C.2       1 <0>         0.1382
     17 N1         -5.1669   -3.8612   -0.7548 N.2       1 <0>        -0.3245
     18 O1         -6.3903   -4.5736   -0.7263 O.3       1 <0>        -0.4045
     19 O2          3.5466    2.1140   -0.0205 O.3       1 <0>        -0.4993
     20 H1         -0.9589    1.9191    0.0260 H         1 <0>         0.1316
     21 H2          1.1546    3.1749    0.0077 H         1 <0>         0.1330
     22 H3          3.3475   -0.4953   -0.0334 H         1 <0>         0.1325
     23 H4          1.2402   -1.7617   -0.0212 H         1 <0>         0.1301
     24 H5         -2.0686    0.3434    1.6479 H         1 <0>         0.1374
     25 H6         -4.1945   -0.8781    1.7135 H         1 <0>         0.1457
     26 H7          0.3911   -1.8093   -2.1197 H         1 <0>         0.1381
     27 H8         -0.4213   -3.7276   -3.6033 H         1 <0>         0.1898
     28 H9         -5.7077   -2.6554    0.8250 H         1 <0>         0.1317
     29 H10        -6.4580   -5.2661   -1.3978 H         1 <0>         0.4084
     30 H11         3.8927    2.3110    0.8608 H         1 <0>         0.3934
@<TRIPOS>BOND
     1    1    6 ar
     2    1    2 ar
     3    1   20 1
     4    2    3 ar
     5    2   21 1
     6    3    4 ar
     7    3   19 1
     8    4    5 ar
     9    4   22 1
    10    5    6 ar
    11    5   23 1
    12    6    7 1
    13    7   12 ar
    14    7    8 ar
    15    8    9 ar
    16    8   24 1
    17    9   10 ar
    18    9   25 1
    19   10   11 ar
    20   10   16 1
    21   11   15 1
    22   11   12 ar
    23   12   13 1
    24   13   14 2
    25   13   26 1
    26   14   15 1
    27   14   27 1
    28   16   17 2
    29   16   28 1
    30   17   18 1
    31   18   29 1
    32   19   30 1
@<TRIPOS>MOLECULE
CHEMBL231811
   30    32     0     0     0
SMALL
USER_CHARGES

@<TRIPOS>ATOM
      1 C1         -0.0168    1.3907    0.0097 C.ar      1 <0>        -0.0820
      2 C2          1.1686    2.0947    0.0022 C.ar      1 <0>        -0.1439
      3 C3          2.3804    1.4168   -0.0135 C.ar      1 <0>         0.1135
      4 C4          2.4029    0.0284   -0.0217 C.ar      1 <0>        -0.1416
      5 C5          1.2212   -0.6818   -0.0137 C.ar      1 <0>        -0.0828
      6 C6          0.0021   -0.0041    0.0020 C.ar      1 <0>        -0.0677
      7 C7         -1.2696   -0.7638    0.0106 C.ar      1 <0>         0.0185
      8 C8         -2.2618   -0.4582    0.9428 C.ar      1 <0>        -0.0921
      9 C9         -3.4424   -1.1732    0.9401 C.ar      1 <0>        -0.0810
     10 C10        -3.6662   -2.1937    0.0271 C.ar      1 <0>        -0.0235
     11 C11        -2.6712   -2.5332   -0.9410 C.ar      1 <0>        -0.0511
     12 C12        -1.4813   -1.7795   -0.9133 C.ar      1 <0>        -0.1118
     13 S1         -0.5184   -2.4697   -2.2342 S.3       1 <0>         0.0375
     14 C13        -1.6715   -3.7073   -2.7974 C.2       1 <0>        -0.1512
     15 C14        -2.7178   -3.5584   -1.9684 C.2       1 <0>        -0.1425
     16 C15        -4.9382   -2.9329    0.0562 C.2       1 <0>         0.1429
     17 N1         -5.1527   -3.8869   -0.7939 N.2       1 <0>        -0.3263
     18 O1         -6.3767   -4.5982   -0.7659 O.3       1 <0>        -0.4097
     19 O2          3.5467    2.1136   -0.0214 O.3       1 <0>        -0.4989
     20 H1         -0.9589    1.9185    0.0260 H         1 <0>         0.1320
     21 H2          1.1547    3.1746    0.0081 H         1 <0>         0.1333
     22 H3          3.3471   -0.4957   -0.0346 H         1 <0>         0.1332
     23 H4          1.2394   -1.7616   -0.0204 H         1 <0>         0.1296
     24 H5         -2.1068    0.3324    1.6621 H         1 <0>         0.1437
     25 H6         -4.2076   -0.9336    1.6637 H         1 <0>         0.1400
     26 H7         -1.5534   -4.4134   -3.6060 H         1 <0>         0.1911
     27 H8         -3.5902   -4.1864   -2.0730 H         1 <0>         0.1600
     28 H9         -5.6930   -2.6802    0.7862 H         1 <0>         0.1301
     29 H10        -6.4447   -5.2906   -1.4375 H         1 <0>         0.4074
     30 H11         3.8931    2.3106    0.8597 H         1 <0>         0.3932
@<TRIPOS>BOND
     1    1    6 ar
     2    1    2 ar
     3    1   20 1
     4    2    3 ar
     5    2   21 1
     6    3    4 ar
     7    3   19 1
     8    4    5 ar
     9    4   22 1
    10    5    6 ar
    11    5   23 1
    12    6    7 1
    13    7   12 ar
    14    7    8 ar
    15    8    9 ar
    16    8   24 1
    17    9   10 ar
    18    9   25 1
    19   10   11 ar
    20   10   16 1
    21   11   15 1
    22   11   12 ar
    23   12   13 1
    24   13   14 1
    25   14   15 2
    26   14   26 1
    27   15   27 1
    28   16   17 2
    29   16   28 1
    30   17   18 1
    31   18   29 1
    32   19   30 1
@<TRIPOS>MOLECULE
CHEMBL231812
   30    32     0     0     0
SMALL
USER_CHARGES

@<TRIPOS>ATOM
      1 C1         -0.0168    1.3912    0.0097 C.ar      1 <0>        -0.0842
      2 C2          1.1685    2.0950    0.0022 C.ar      1 <0>        -0.1442
      3 C3          2.3804    1.4171   -0.0131 C.ar      1 <0>         0.1115
      4 C4          2.4031    0.0286   -0.0207 C.ar      1 <0>        -0.1447
      5 C5          1.2218   -0.6819   -0.0137 C.ar      1 <0>        -0.0826
      6 C6          0.0021   -0.0041    0.0020 C.ar      1 <0>        -0.0624
      7 C7         -1.2686   -0.7634    0.0106 C.ar      1 <0>         0.0221
      8 C8         -2.2593   -0.4591    0.9406 C.ar      1 <0>        -0.1287
      9 C9         -3.4448   -1.1646    0.9514 C.ar      1 <0>        -0.0549
     10 C10        -3.6703   -2.1910    0.0336 C.ar      1 <0>        -0.0476
     11 C11        -2.6845   -2.5129   -0.9123 C.ar      1 <0>         0.0890
     12 C12        -1.4834   -1.7909   -0.9236 C.ar      1 <0>        -0.1238
     13 C13        -0.6905   -2.3631   -2.0159 C.2       1 <0>        -0.2088
     14 C14        -1.4425   -3.3344   -2.5539 C.2       1 <0>         0.0102
     15 O1         -2.6132   -3.4269   -1.8990 O.3       1 <0>        -0.1728
     16 C15        -4.9412   -2.9362    0.0576 C.2       1 <0>         0.1358
     17 N1         -5.1494   -3.8885   -0.7946 N.2       1 <0>        -0.3181
     18 O2         -6.3708   -4.6046   -0.7716 O.3       1 <0>        -0.4094
     19 O3          3.5466    2.1139   -0.0209 O.3       1 <0>        -0.4995
     20 H1         -0.9589    1.9191    0.0260 H         1 <0>         0.1314
     21 H2          1.1546    3.1749    0.0077 H         1 <0>         0.1327
     22 H3          3.3475   -0.4953   -0.0326 H         1 <0>         0.1321
     23 H4          1.2402   -1.7617   -0.0204 H         1 <0>         0.1296
     24 H5         -2.0987    0.3329    1.6572 H         1 <0>         0.1398
     25 H6         -4.2057   -0.9203    1.6778 H         1 <0>         0.1468
     26 H7          0.2996   -2.0627   -2.3252 H         1 <0>         0.1592
     27 H8         -1.1476   -3.9567   -3.3858 H         1 <0>         0.2102
     28 H9         -5.6990   -2.6881    0.7859 H         1 <0>         0.1302
     29 H10        -6.4342   -5.2958   -1.4449 H         1 <0>         0.4079
     30 H11         3.8928    2.3112    0.8602 H         1 <0>         0.3931
@<TRIPOS>BOND
     1    1    6 ar
     2    1    2 ar
     3    1   20 1
     4    2    3 ar
     5    2   21 1
     6    3    4 ar
     7    3   19 1
     8    4    5 ar
     9    4   22 1
    10    5    6 ar
    11    5   23 1
    12    6    7 1
    13    7   12 ar
    14    7    8 ar
    15    8    9 ar
    16    8   24 1
    17    9   10 ar
    18    9   25 1
    19   10   11 ar
    20   10   16 1
    21   11   15 1
    22   11   12 ar
    23   12   13 1
    24   13   14 2
    25   13   26 1
    26   14   15 1
    27   14   27 1
    28   16   17 2
    29   16   28 1
    30   17   18 1
    31   18   29 1
    32   19   30 1
@<TRIPOS>MOLECULE
CHEMBL103
   51    54     0     0     0
SMALL
USER_CHARGES

@<TRIPOS>ATOM
      1 C1         -1.2451    0.7480    0.4418 C.3       1 <0>        -0.2079
      2 C2         -0.0130   -0.0024    0.0062 C.2       1 <0>         0.3652
      3 O1          0.9705   -0.0070    0.7070 O.2       1 <0>        -0.4548
      4 C3         -0.0081   -0.7470   -1.3040 C.3       1 <0>        -0.1325
      5 H1         -0.6004   -0.2102   -2.0450 H         1 <0>         0.0978
      6 C4          1.4441   -0.9331   -1.8102 C.3       1 <0>        -0.1188
      7 C5          1.6574   -2.4625   -1.9764 C.3       1 <0>        -0.1150
      8 C6          0.2304   -2.9896   -2.1637 C.3       1 <0>        -0.0798
      9 H2         -0.1277   -2.7656   -3.1686 H         1 <0>         0.0787
     10 C7         -0.5545   -2.1580   -1.1120 C.3       1 <0>        -0.0490
     11 C8         -2.0316   -2.3550   -1.3940 C.3       1 <0>        -0.1045
     12 C9         -2.3478   -3.8377   -1.1415 C.3       1 <0>        -0.1235
     13 C10        -1.4843   -4.7528   -2.0045 C.3       1 <0>        -0.0601
     14 H3         -1.7432   -4.6061   -3.0531 H         1 <0>         0.0745
     15 C11         0.0221   -4.4589   -1.8452 C.3       1 <0>        -0.0789
     16 H4          0.3211   -4.6582   -0.8161 H         1 <0>         0.0881
     17 C12         0.8336   -5.3210   -2.8143 C.3       1 <0>        -0.1115
     18 C13         0.6511   -6.8015   -2.4654 C.3       1 <0>        -0.0957
     19 C14        -0.8350   -7.1068   -2.4640 C.2       1 <0>        -0.0284
     20 C15        -1.2808   -8.1344   -3.1732 C.2       1 <0>        -0.2297
     21 C16        -2.7173   -8.4490   -3.2129 C.2       1 <0>         0.4070
     22 O2         -3.1261   -9.4144   -3.8306 O.2       1 <0>        -0.4592
     23 C17        -3.6494   -7.5692   -2.4875 C.2       1 <0>        -0.2152
     24 C18        -3.1814   -6.5528   -1.7801 C.2       1 <0>        -0.0691
     25 C19        -1.7496   -6.2111   -1.6194 C.3       1 <0>        -0.0096
     26 C20        -1.3852   -6.3767   -0.1426 C.3       1 <0>        -0.1439
     27 C21        -0.2211   -2.6561    0.2957 C.3       1 <0>        -0.1576
     28 H5         -1.1980    1.7713    0.0694 H         1 <0>         0.0957
     29 H6         -2.1311    0.2558    0.0407 H         1 <0>         0.0848
     30 H7         -1.2975    0.7596    1.5305 H         1 <0>         0.0840
     31 H8          1.5734   -0.4309   -2.7690 H         1 <0>         0.0678
     32 H9          2.1487   -0.5342   -1.0805 H         1 <0>         0.0793
     33 H10         2.2652   -2.6738   -2.8562 H         1 <0>         0.0683
     34 H11         2.1113   -2.8881   -1.0814 H         1 <0>         0.0703
     35 H12        -2.6237   -1.7300   -0.7256 H         1 <0>         0.0680
     36 H13        -2.2487   -2.1005   -2.4314 H         1 <0>         0.0694
     37 H14        -2.1679   -4.0658   -0.0909 H         1 <0>         0.0760
     38 H15        -3.3979   -4.0211   -1.3691 H         1 <0>         0.0674
     39 H16         0.4893   -5.1434   -3.8331 H         1 <0>         0.0670
     40 H17         1.8885   -5.0577   -2.7377 H         1 <0>         0.0747
     41 H18         1.1530   -7.4195   -3.2098 H         1 <0>         0.0801
     42 H19         1.0686   -7.0011   -1.4785 H         1 <0>         0.0852
     43 H20        -0.5834   -8.7455   -3.7269 H         1 <0>         0.1363
     44 H21        -4.7127   -7.7527   -2.5328 H         1 <0>         0.1390
     45 H22        -3.8925   -5.9231   -1.2661 H         1 <0>         0.1246
     46 H23        -1.9994   -5.7079    0.4604 H         1 <0>         0.0732
     47 H24        -1.5638   -7.4078    0.1623 H         1 <0>         0.0615
     48 H25        -0.3327   -6.1323    0.0015 H         1 <0>         0.0724
     49 H26        -0.7596   -2.0571    1.0300 H         1 <0>         0.0521
     50 H27        -0.5173   -3.7007    0.3912 H         1 <0>         0.0708
     51 H28         0.8513   -2.5653    0.4688 H         1 <0>         0.0653
@<TRIPOS>BOND
     1    1    2 1
     2    1   28 1
     3    1   29 1
     4    1   30 1
     5    2    3 2
     6    2    4 1
     7    4    5 1
     8    4   10 1
     9    4    6 1
    10    6    7 1
    11    6   31 1
    12    6   32 1
    13    7    8 1
    14    7   33 1
    15    7   34 1
    16    8    9 1
    17    8   15 1
    18    8   10 1
    19   10   11 1
    20   10   27 1
    21   11   12 1
    22   11   35 1
    23   11   36 1
    24   12   13 1
    25   12   37 1
    26   12   38 1
    27   13   14 1
    28   13   25 1
    29   13   15 1
    30   15   16 1
    31   15   17 1
    32   17   18 1
    33   17   39 1
    34   17   40 1
    35   18   19 1
    36   18   41 1
    37   18   42 1
    38   19   25 1
    39   19   20 2
    40   20   21 1
    41   20   43 1
    42   21   22 2
    43   21   23 1
    44   23   24 2
    45   23   44 1
    46   24   25 1
    47   24   45 1
    48   25   26 1
    49   26   46 1
    50   26   47 1
    51   26   48 1
    52   27   49 1
    53   27   50 1
    54   27   51 1
@<TRIPOS>MOLECULE
CHEMBL178679
   63    68     0     0     0
SMALL
USER_CHARGES

@<TRIPOS>ATOM
      1 C1         -1.3305   -0.9499    3.4691 C.ar      1 <0>        -0.0732
      2 C2         -0.9404   -1.2393    4.7580 C.ar      1 <0>        -0.1465
      3 C3         -0.7857   -2.5607    5.1592 C.ar      1 <0>         0.1240
      4 C4         -1.0235   -3.5957    4.2631 C.ar      1 <0>        -0.1390
      5 C5         -1.4139   -3.3158    2.9722 C.ar      1 <0>        -0.0713
      6 C6         -1.5709   -1.9880    2.5640 C.ar      1 <0>        -0.0376
      7 C7         -1.9885   -1.6833    1.1834 C.2       1 <0>        -0.0547
      8 C8         -1.5009   -2.2181   -0.0019 C.2       1 <0>        -0.1537
      9 C9         -2.0873   -1.7474   -1.2593 C.ar      1 <0>        -0.0717
     10 C10        -1.7590   -2.1403   -2.5766 C.ar      1 <0>        -0.0572
     11 C11        -2.4093   -1.5967   -3.6530 C.ar      1 <0>        -0.1383
     12 C12        -3.4105   -0.6442   -3.4847 C.ar      1 <0>         0.1342
     13 C13        -3.7546   -0.2395   -2.2051 C.ar      1 <0>        -0.1022
     14 C14        -3.1028   -0.7832   -1.1181 C.ar      1 <0>        -0.1018
     15 S1         -3.2457   -0.5462    0.6346 S.3       1 <0>         0.0843
     16 O1         -4.0439   -0.1161   -4.5653 O.3       1 <0>        -0.4913
     17 C15        -0.4346   -3.2198    0.0049 C.2       1 <0>         0.4655
     18 O2         -0.7121   -4.4050   -0.0419 O.2       1 <0>        -0.4491
     19 C16         0.9775   -2.7943    0.0686 C.ar      1 <0>        -0.2269
     20 C17         1.3027   -1.4357    0.0157 C.ar      1 <0>        -0.0074
     21 C18         2.6201   -1.0422    0.0757 C.ar      1 <0>        -0.2140
     22 C19         3.6284   -1.9954    0.1890 C.ar      1 <0>         0.2572
     23 C20         3.3078   -3.3491    0.2420 C.ar      1 <0>        -0.2152
     24 C21         1.9920   -3.7487    0.1877 C.ar      1 <0>        -0.0033
     25 N1          4.9590   -1.5944    0.2490 N.pl3     1 <0>        -0.6172
     26 C22         5.3080   -0.1686    0.3211 C.3       1 <0>         0.1012
     27 C23         6.1902    0.0583    1.5550 C.3       1 <0>         0.1049
     28 N2          7.2721   -0.9363    1.5480 N.pl3     1 <0>        -0.6257
     29 C24         6.9231   -2.3621    1.4760 C.3       1 <0>         0.1039
     30 C25         6.0407   -2.5892    0.2477 C.3       1 <0>         0.1003
     31 C26         8.6089   -0.5335    1.6083 C.ar      1 <0>         0.2242
     32 C27         8.9240    0.8063    1.7955 C.ar      1 <0>        -0.1885
     33 C28        10.2460    1.2015    1.8552 C.ar      1 <0>        -0.0582
     34 C29        11.2562    0.2643    1.7282 C.ar      1 <0>        -0.0928
     35 C30        10.9450   -1.0711    1.5416 C.ar      1 <0>        -0.0582
     36 C31         9.6248   -1.4728    1.4869 C.ar      1 <0>        -0.1887
     37 Cl1        12.9168    0.7648    1.8026 Cl        1 <0>        -0.0779
     38 O3         -0.4006   -2.8413    6.4308 O.3       1 <0>        -0.4974
     39 H1         -1.4548    0.0773    3.1594 H         1 <0>         0.1335
     40 H2         -0.7542   -0.4380    5.4578 H         1 <0>         0.1361
     41 H3         -0.9016   -4.6212    4.5792 H         1 <0>         0.1362
     42 H4         -1.5981   -4.1209    2.2763 H         1 <0>         0.1341
     43 H5         -0.9862   -2.8774   -2.7367 H         1 <0>         0.1296
     44 H6         -2.1401   -1.9125   -4.6501 H         1 <0>         0.1382
     45 H7         -4.5292    0.4989   -2.0595 H         1 <0>         0.1408
     46 H8         -4.8319   -0.6060   -4.8376 H         1 <0>         0.3968
     47 H9          0.5210   -0.6958   -0.0725 H         1 <0>         0.1257
     48 H10         2.8720    0.0073    0.0346 H         1 <0>         0.1290
     49 H11         4.0922   -4.0862    0.3295 H         1 <0>         0.1300
     50 H12         1.7436   -4.7988    0.2329 H         1 <0>         0.1331
     51 H13         5.8539    0.1202   -0.5771 H         1 <0>         0.0719
     52 H14         4.3989    0.4267    0.4068 H         1 <0>         0.0974
     53 H15         6.6152    1.0614    1.5214 H         1 <0>         0.0963
     54 H16         5.5920   -0.0582    2.4587 H         1 <0>         0.0702
     55 H17         7.8322   -2.9573    1.3902 H         1 <0>         0.0969
     56 H18         6.3772   -2.6509    2.3741 H         1 <0>         0.0704
     57 H19         5.6155   -3.5921    0.2851 H         1 <0>         0.0980
     58 H20         6.6401   -2.4767   -0.6557 H         1 <0>         0.0721
     59 H21         8.1361    1.5383    1.8940 H         1 <0>         0.1312
     60 H22        10.4917    2.2431    2.0007 H         1 <0>         0.1325
     61 H23        11.7354   -1.8005    1.4428 H         1 <0>         0.1325
     62 H24         9.3825   -2.5158    1.3457 H         1 <0>         0.1314
     63 H25        -1.1297   -2.8702    7.0653 H         1 <0>         0.3952
@<TRIPOS>BOND
     1    1    6 ar
     2    1    2 ar
     3    1   39 1
     4    2    3 ar
     5    2   40 1
     6    3    4 ar
     7    3   38 1
     8    4    5 ar
     9    4   41 1
    10    5    6 ar
    11    5   42 1
    12    6    7 1
    13    7   15 1
    14    7    8 2
    15    8    9 1
    16    8   17 1
    17    9   14 ar
    18    9   10 ar
    19   10   11 ar
    20   10   43 1
    21   11   12 ar
    22   11   44 1
    23   12   13 ar
    24   12   16 1
    25   13   14 ar
    26   13   45 1
    27   14   15 1
    28   16   46 1
    29   17   18 2
    30   17   19 1
    31   19   24 ar
    32   19   20 ar
    33   20   21 ar
    34   20   47 1
    35   21   22 ar
    36   21   48 1
    37   22   23 ar
    38   22   25 1
    39   23   24 ar
    40   23   49 1
    41   24   50 1
    42   25   30 1
    43   25   26 1
    44   26   27 1
    45   26   51 1
    46   26   52 1
    47   27   28 1
    48   27   53 1
    49   27   54 1
    50   28   29 1
    51   28   31 1
    52   29   30 1
    53   29   55 1
    54   29   56 1
    55   30   57 1
    56   30   58 1
    57   31   36 ar
    58   31   32 ar
    59   32   33 ar
    60   32   59 1
    61   33   34 ar
    62   33   60 1
    63   34   35 ar
    64   34   37 1
    65   35   36 ar
    66   35   61 1
    67   36   62 1
    68   38   63 1
@<TRIPOS>MOLECULE
CHEMBL25228
   41    45     0     0     0
SMALL
USER_CHARGES

@<TRIPOS>ATOM
      1 C1         -0.0167    1.3774    0.0096 C.ar      1 <0>        -0.0942
      2 C2          1.1671    2.0943    0.0022 C.ar      1 <0>        -0.0935
      3 C3          2.3826    1.4378   -0.0130 C.ar      1 <0>        -0.0580
      4 C4          2.4245    0.0418   -0.0214 C.ar      1 <0>        -0.1415
      5 C5          1.2198   -0.6879   -0.0140 C.ar      1 <0>        -0.1438
      6 C6          0.0021   -0.0041    0.0020 C.ar      1 <0>        -0.0578
      7 C7          1.5112   -2.1340   -0.0270 C.2       1 <0>         0.4357
      8 O1          0.6978   -3.0330   -0.0236 O.2       1 <0>        -0.3972
      9 C8          3.0089   -2.2826   -0.0457 C.3       1 <0>        -0.0828
     10 C9          3.5710   -0.8865   -0.0378 C.2       1 <0>         0.4367
     11 O2          4.7445   -0.5822   -0.0444 O.2       1 <0>        -0.3965
     12 C10         3.4629   -3.0438   -1.2616 C.ar      1 <0>        -0.0936
     13 C11         3.3283   -2.8289   -2.6140 C.ar      1 <0>        -0.0728
     14 C12         3.8664   -3.7286   -3.5170 C.ar      1 <0>        -0.1322
     15 C13         4.5440   -4.8521   -3.0612 C.ar      1 <0>         0.1199
     16 C14         4.6854   -5.0772   -1.7035 C.ar      1 <0>        -0.1160
     17 C15         4.1441   -4.1704   -0.7868 C.ar      1 <0>        -0.0421
     18 C16         4.1399   -4.1496    0.6843 C.2       1 <0>        -0.0673
     19 C17         3.4909   -3.0696    1.1436 C.2       1 <0>        -0.0684
     20 C18         3.2859   -2.7167    2.5593 C.ar      1 <0>        -0.0571
     21 C19         1.9963   -2.7009    3.0983 C.ar      1 <0>        -0.0844
     22 C20         1.8096   -2.3706    4.4230 C.ar      1 <0>        -0.1416
     23 C21         2.9003   -2.0533    5.2223 C.ar      1 <0>         0.1170
     24 C22         4.1837   -2.0672    4.6912 C.ar      1 <0>        -0.1429
     25 C23         4.3810   -2.4023    3.3692 C.ar      1 <0>        -0.0767
     26 O3          2.7113   -1.7279    6.5277 O.3       1 <0>        -0.4983
     27 O4          5.0695   -5.7337   -3.9521 O.3       1 <0>        -0.4948
     28 H1         -0.9610    1.9011    0.0260 H         1 <0>         0.1423
     29 H2          1.1404    3.1740    0.0079 H         1 <0>         0.1423
     30 H3          3.3017    2.0049   -0.0187 H         1 <0>         0.1407
     31 H4         -0.9262   -0.5560    0.0085 H         1 <0>         0.1409
     32 H5          2.8015   -1.9565   -2.9714 H         1 <0>         0.1296
     33 H6          3.7591   -3.5573   -4.5779 H         1 <0>         0.1402
     34 H7          5.2127   -5.9518   -1.3522 H         1 <0>         0.1380
     35 H8          4.5976   -4.9019    1.3096 H         1 <0>         0.1506
     36 H9          1.1475   -2.9467    2.4774 H         1 <0>         0.1274
     37 H10         0.8136   -2.3581    4.8403 H         1 <0>         0.1342
     38 H11         5.0287   -1.8195    5.3164 H         1 <0>         0.1352
     39 H12         5.3796   -2.4174    2.9583 H         1 <0>         0.1331
     40 H13         2.7398   -2.4842    7.1297 H         1 <0>         0.3942
     41 H14         5.9788   -5.5337   -4.2136 H         1 <0>         0.3952
@<TRIPOS>BOND
     1    1    6 ar
     2    1    2 ar
     3    1   28 1
     4    2    3 ar
     5    2   29 1
     6    3    4 ar
     7    3   30 1
     8    4   10 1
     9    4    5 ar
    10    5    6 ar
    11    5    7 1
    12    6   31 1
    13    7    8 2
    14    7    9 1
    15    9   19 1
    16    9   10 1
    17    9   12 1
    18   10   11 2
    19   12   17 ar
    20   12   13 ar
    21   13   14 ar
    22   13   32 1
    23   14   15 ar
    24   14   33 1
    25   15   16 ar
    26   15   27 1
    27   16   17 ar
    28   16   34 1
    29   17   18 1
    30   18   19 2
    31   18   35 1
    32   19   20 1
    33   20   25 ar
    34   20   21 ar
    35   21   22 ar
    36   21   36 1
    37   22   23 ar
    38   22   37 1
    39   23   24 ar
    40   23   26 1
    41   24   25 ar
    42   24   38 1
    43   25   39 1
    44   26   40 1
    45   27   41 1
@<TRIPOS>MOLECULE
CHEMBL315271
   68    72     0     0     0
SMALL
USER_CHARGES

@<TRIPOS>ATOM
      1 C1          0.0438    1.0466    0.0482 C.ar      1 <0>        -0.0590
      2 C2          1.1882    1.8192    0.0061 C.ar      1 <0>        -0.1394
      3 C3          2.4352    1.2115    0.0270 C.ar      1 <0>         0.1227
      4 C4          2.5294   -0.1712    0.0902 C.ar      1 <0>        -0.2037
      5 C5          1.3820   -0.9394    0.1320 C.ar      1 <0>        -0.0470
      6 C6          0.1404   -0.3313    0.1110 C.ar      1 <0>        -0.1013
      7 C7         -1.1097   -1.1716    0.1572 C.3       1 <0>         0.1435
      8 H1         -1.9490   -0.5587    0.4858 H         1 <0>         0.0917
      9 C8         -1.4021   -1.7360   -1.2431 C.3       1 <0>        -0.1049
     10 H2         -1.4481   -0.9242   -1.9691 H         1 <0>         0.1310
     11 S1         -3.0129   -2.5790   -1.1509 S.3       1 <0>        -0.0850
     12 C9         -2.8991   -3.4619    0.3750 C.ar      1 <0>        -0.1420
     13 C10        -3.8351   -4.4489    0.6544 C.ar      1 <0>        -0.0920
     14 C11        -3.7723   -5.1497    1.8479 C.ar      1 <0>         0.0985
     15 C12        -2.7712   -4.8578    2.7628 C.ar      1 <0>        -0.1114
     16 C13        -1.8397   -3.8790    2.4846 C.ar      1 <0>        -0.1136
     17 C14        -1.8883   -3.1729    1.2848 C.ar      1 <0>         0.1174
     18 O1         -0.9247   -2.2482    1.0635 O.3       1 <0>        -0.3108
     19 O2         -4.6871   -6.1179    2.1211 O.3       1 <0>        -0.4927
     20 C15        -0.3116   -2.7320   -1.6427 C.3       1 <0>        -0.1031
     21 C16        -0.5441   -3.1920   -3.0833 C.3       1 <0>        -0.0910
     22 C17        -1.8280   -4.0432   -3.1655 C.3       1 <0>        -0.1140
     23 C18        -1.4889   -5.1429   -4.2023 C.3       1 <0>        -0.1301
     24 C19        -0.0076   -5.4663   -3.8854 C.3       1 <0>        -0.1253
     25 C20         0.6133   -4.0968   -3.5410 C.3       1 <0>        -0.1180
     26 O3          3.5625    1.9693   -0.0147 O.3       1 <0>        -0.3272
     27 C21         4.8117    1.2758    0.0102 C.3       1 <0>         0.0250
     28 C22         5.9580    2.2878   -0.0434 C.3       1 <0>        -0.0009
     29 N1          5.9254    3.1288    1.1606 N.4       1 <0>        -0.3842
     30 C23         6.9247    4.1968    1.0368 C.3       1 <0>        -0.0070
     31 C24         6.8396    5.1234    2.2516 C.3       1 <0>        -0.1467
     32 C25         7.1096    4.3145    3.5236 C.3       1 <0>        -0.1391
     33 C26         6.1082    3.1588    3.6040 C.3       1 <0>        -0.1454
     34 C27         6.2203    2.3050    2.3391 C.3       1 <0>        -0.0133
     35 H3         -0.9271    1.5194    0.0364 H         1 <0>         0.1398
     36 H4          1.1123    2.8954   -0.0434 H         1 <0>         0.1379
     37 H5          3.4990   -0.6467    0.1062 H         1 <0>         0.1303
     38 H6          1.4548   -2.0158    0.1812 H         1 <0>         0.1377
     39 H7         -4.6136   -4.6710   -0.0604 H         1 <0>         0.1388
     40 H8         -2.7211   -5.3986    3.6963 H         1 <0>         0.1405
     41 H9         -1.0649   -3.6583    3.2039 H         1 <0>         0.1377
     42 H10        -4.4288   -6.9995    1.8194 H         1 <0>         0.3940
     43 H11         0.6641   -2.2520   -1.5676 H         1 <0>         0.0778
     44 H12        -0.3448   -3.5939   -0.9763 H         1 <0>         0.0730
     45 H13        -0.6254   -2.3276   -3.7424 H         1 <0>         0.0700
     46 H14        -2.0529   -4.4888   -2.1965 H         1 <0>         0.0770
     47 H15        -2.6656   -3.4378   -3.5118 H         1 <0>         0.0682
     48 H16        -2.1166   -6.0214   -4.0529 H         1 <0>         0.0657
     49 H17        -1.5921   -4.7612   -5.2180 H         1 <0>         0.0643
     50 H18         0.0614   -6.1417   -3.0327 H         1 <0>         0.0633
     51 H19         0.4832   -5.8994   -4.7570 H         1 <0>         0.0639
     52 H20         1.0931   -3.6720   -4.4227 H         1 <0>         0.0626
     53 H21         1.3406   -4.2082   -2.7368 H         1 <0>         0.0602
     54 H22         4.8850    0.6921    0.9278 H         1 <0>         0.0872
     55 H23         4.8746    0.6096   -0.8502 H         1 <0>         0.1101
     56 H24         6.9090    1.7574   -0.0905 H         1 <0>         0.1493
     57 H25         5.8477    2.9152   -0.9279 H         1 <0>         0.1428
     58 H26         7.9209    3.7574    0.9846 H         1 <0>         0.1292
     59 H27         6.7332    4.7695    0.1294 H         1 <0>         0.1311
     60 H28         7.5835    5.9146    2.1586 H         1 <0>         0.1132
     61 H29         5.8439    5.5635    2.3046 H         1 <0>         0.0880
     62 H30         8.1239    3.9165    3.4940 H         1 <0>         0.0822
     63 H31         6.9946    4.9579    4.3959 H         1 <0>         0.0949
     64 H32         6.3292    2.5457    4.4777 H         1 <0>         0.1124
     65 H33         5.0972    3.5581    3.6851 H         1 <0>         0.0879
     66 H34         5.5088    1.4810    2.3932 H         1 <0>         0.1272
     67 H35         7.2315    1.9059    2.2591 H         1 <0>         0.1304
     68 H36         5.0086    3.5385    1.2588 H         1 <0>         0.4293
@<TRIPOS>BOND
     1    1    6 ar
     2    1    2 ar
     3    1   35 1
     4    2    3 ar
     5    2   36 1
     6    3    4 ar
     7    3   26 1
     8    4    5 ar
     9    4   37 1
    10    5    6 ar
    11    5   38 1
    12    6    7 1
    13    7    8 1
    14    7   18 1
    15    7    9 1
    16    9   10 1
    17    9   11 1
    18    9   20 1
    19   11   12 1
    20   12   17 ar
    21   12   13 ar
    22   13   14 ar
    23   13   39 1
    24   14   15 ar
    25   14   19 1
    26   15   16 ar
    27   15   40 1
    28   16   17 ar
    29   16   41 1
    30   17   18 1
    31   19   42 1
    32   20   21 1
    33   20   43 1
    34   20   44 1
    35   21   25 1
    36   21   22 1
    37   21   45 1
    38   22   23 1
    39   22   46 1
    40   22   47 1
    41   23   24 1
    42   23   48 1
    43   23   49 1
    44   24   25 1
    45   24   50 1
    46   24   51 1
    47   25   52 1
    48   25   53 1
    49   26   27 1
    50   27   28 1
    51   27   54 1
    52   27   55 1
    53   28   29 1
    54   28   56 1
    55   28   57 1
    56   29   34 1
    57   29   30 1
    58   29   68 1
    59   30   31 1
    60   30   58 1
    61   30   59 1
    62   31   32 1
    63   31   60 1
    64   31   61 1
    65   32   33 1
    66   32   62 1
    67   32   63 1
    68   33   34 1
    69   33   64 1
    70   33   65 1
    71   34   66 1
    72   34   67 1
@<TRIPOS>MOLECULE
CHEMBL220609
   64    68     0     0     0
SMALL
USER_CHARGES

@<TRIPOS>ATOM
      1 C1         -0.3115    1.4293   -0.0989 C.ar      1 <0>        -0.0789
      2 C2          0.9189    2.0521   -0.1144 C.ar      1 <0>        -0.1435
      3 C3          2.0811    1.2955   -0.1753 C.ar      1 <0>         0.1167
      4 C4          2.0100   -0.0900   -0.2208 C.ar      1 <0>        -0.1403
      5 C5          0.7833   -0.7201   -0.2057 C.ar      1 <0>        -0.0765
      6 C6         -0.3871    0.0369   -0.1446 C.ar      1 <0>        -0.0252
      7 C7         -1.7060   -0.6357   -0.1277 C.2       1 <0>        -0.1300
      8 C8         -2.6391   -0.6193    0.9267 C.2       1 <0>         0.1715
      9 N1         -3.6910   -1.3314    0.5681 N.2       1 <0>        -0.2621
     10 N2         -3.4865   -1.8347   -0.7214 N.pl3     1 <0>        -0.2876
     11 C9         -2.2609   -1.4014   -1.1588 C.2       1 <0>         0.2625
     12 N3         -1.8139   -1.7359   -2.3740 N.2       1 <0>        -0.3658
     13 C10        -2.5377   -2.4823   -3.1760 C.2       1 <0>         0.1183
     14 C11        -3.7973   -2.9419   -2.7669 C.2       1 <0>        -0.1236
     15 C12        -4.2573   -2.6161   -1.5338 C.2       1 <0>         0.1062
     16 C13        -5.6091   -3.0963   -1.0721 C.3       1 <0>         0.5277
     17 F1         -6.1960   -3.8733   -2.0765 F         1 <0>        -0.1503
     18 F2         -5.4598   -3.8666    0.0862 F         1 <0>        -0.1520
     19 F3         -6.4264   -1.9946   -0.7973 F         1 <0>        -0.1531
     20 C14        -2.0127   -2.8456   -4.5411 C.3       1 <0>         0.5313
     21 F4         -0.7476   -2.2761   -4.7209 F         1 <0>        -0.1488
     22 F5         -1.9172   -4.2372   -4.6487 F         1 <0>        -0.1558
     23 F6         -2.8859   -2.3609   -5.5207 F         1 <0>        -0.1559
     24 C15        -2.4686    0.0806    2.2227 C.ar      1 <0>        -0.0473
     25 C16        -1.2062    0.1695    2.8078 C.ar      1 <0>        -0.0374
     26 C17        -1.0509    0.8211    4.0132 C.ar      1 <0>        -0.1396
     27 C18        -2.1500    1.3882    4.6440 C.ar      1 <0>         0.1328
     28 C19        -3.4084    1.3014    4.0639 C.ar      1 <0>        -0.2039
     29 C20        -3.5693    0.6562    2.8559 C.ar      1 <0>        -0.0389
     30 O1         -1.9938    2.0291    5.8319 O.3       1 <0>        -0.3256
     31 C21        -3.1665    2.5895    6.4258 C.3       1 <0>         0.0237
     32 C22        -2.7958    3.2650    7.7476 C.3       1 <0>        -0.0011
     33 N4         -1.8857    4.3879    7.4853 N.4       1 <0>        -0.3842
     34 C23        -1.4081    4.9367    8.7601 C.3       1 <0>        -0.0072
     35 C24        -0.3972    6.0538    8.4921 C.3       1 <0>        -0.1466
     36 C25        -1.0727    7.1616    7.6787 C.3       1 <0>        -0.1393
     37 C26        -1.6323    6.5627    6.3852 C.3       1 <0>        -0.1453
     38 C27        -2.5974    5.4268    6.7312 C.3       1 <0>        -0.0134
     39 O2          3.2921    1.9130   -0.1908 O.3       1 <0>        -0.4967
     40 H1         -1.2151    2.0185   -0.0471 H         1 <0>         0.1252
     41 H2          0.9783    3.1299   -0.0794 H         1 <0>         0.1317
     42 H3          2.9164   -0.6753   -0.2685 H         1 <0>         0.1348
     43 H4          0.7287   -1.7982   -0.2415 H         1 <0>         0.1272
     44 H5         -4.3934   -3.5559   -3.4258 H         1 <0>         0.1984
     45 H6         -0.3510   -0.2718    2.3177 H         1 <0>         0.1429
     46 H7         -0.0734    0.8899    4.4671 H         1 <0>         0.1408
     47 H8         -4.2614    1.7436    4.5571 H         1 <0>         0.1346
     48 H9         -4.5477    0.5928    2.4030 H         1 <0>         0.1382
     49 H10        -3.5993    3.3270    5.7497 H         1 <0>         0.0883
     50 H11        -3.8925    1.7983    6.6131 H         1 <0>         0.1116
     51 H12        -3.6992    3.6351    8.2324 H         1 <0>         0.1497
     52 H13        -2.3036    2.5429    8.3991 H         1 <0>         0.1433
     53 H14        -2.2519    5.3379    9.3214 H         1 <0>         0.1293
     54 H15        -0.9305    4.1464    9.3393 H         1 <0>         0.1313
     55 H16        -0.0451    6.4611    9.4399 H         1 <0>         0.1131
     56 H17         0.4473    5.6536    7.9311 H         1 <0>         0.0881
     57 H18        -1.8853    7.5970    8.2603 H         1 <0>         0.0821
     58 H19        -0.3419    7.9334    7.4368 H         1 <0>         0.0948
     59 H20        -2.1631    7.3339    5.8269 H         1 <0>         0.1123
     60 H21        -0.8135    6.1731    5.7804 H         1 <0>         0.0881
     61 H22        -2.9979    4.9983    5.8125 H         1 <0>         0.1274
     62 H23        -3.4159    5.8175    7.3358 H         1 <0>         0.1303
     63 H24         3.6691    2.0616    0.6872 H         1 <0>         0.3920
     64 H25        -1.0980    4.0620    6.9455 H         1 <0>         0.4292
@<TRIPOS>BOND
     1    1    6 ar
     2    1    2 ar
     3    1   40 1
     4    2    3 ar
     5    2   41 1
     6    3    4 ar
     7    3   39 1
     8    4    5 ar
     9    4   42 1
    10    5    6 ar
    11    5   43 1
    12    6    7 1
    13    7   11 2
    14    7    8 1
    15    8    9 2
    16    8   24 1
    17    9   10 1
    18   10   15 1
    19   10   11 1
    20   11   12 1
    21   12   13 2
    22   13   14 1
    23   13   20 1
    24   14   15 2
    25   14   44 1
    26   15   16 1
    27   16   17 1
    28   16   18 1
    29   16   19 1
    30   20   21 1
    31   20   22 1
    32   20   23 1
    33   24   29 ar
    34   24   25 ar
    35   25   26 ar
    36   25   45 1
    37   26   27 ar
    38   26   46 1
    39   27   28 ar
    40   27   30 1
    41   28   29 ar
    42   28   47 1
    43   29   48 1
    44   30   31 1
    45   31   32 1
    46   31   49 1
    47   31   50 1
    48   32   33 1
    49   32   51 1
    50   32   52 1
    51   33   38 1
    52   33   34 1
    53   33   64 1
    54   34   35 1
    55   34   53 1
    56   34   54 1
    57   35   36 1
    58   35   55 1
    59   35   56 1
    60   36   37 1
    61   36   57 1
    62   36   58 1
    63   37   38 1
    64   37   59 1
    65   37   60 1
    66   38   61 1
    67   38   62 1
    68   39   63 1
@<TRIPOS>MOLECULE
CHEMBL125119
   56    60     0     0     0
SMALL
USER_CHARGES

@<TRIPOS>ATOM
      1 C1         -0.0817    1.1069    0.4786 C.ar      1 <0>        -0.0944
      2 C2          1.1283    1.7418    0.6870 C.ar      1 <0>        -0.1089
      3 C3          2.2974    1.0052    0.7276 C.ar      1 <0>        -0.0866
      4 C4          2.2563   -0.3663    0.5602 C.ar      1 <0>        -0.1162
      5 C5          1.0462   -1.0014    0.3527 C.ar      1 <0>        -0.0707
      6 C6         -0.1228   -0.2646    0.3107 C.ar      1 <0>        -0.0722
      7 C7         -1.4420   -0.9569    0.0840 C.3       1 <0>         0.1449
      8 H1         -2.2538   -0.3157    0.4275 H         1 <0>         0.0968
      9 C8         -1.6177   -1.2505   -1.4153 C.3       1 <0>        -0.0651
     10 H2         -1.5021   -0.3317   -1.9903 H         1 <0>         0.1391
     11 S1         -3.2994   -1.9127   -1.6339 S.3       1 <0>        -0.0804
     12 C9         -3.4492   -3.0384   -0.2808 C.ar      1 <0>        -0.1492
     13 C10        -4.4991   -3.9472   -0.2728 C.ar      1 <0>        -0.0896
     14 C11        -4.6432   -4.8349    0.7811 C.ar      1 <0>         0.0989
     15 C12        -3.7347   -4.8086    1.8291 C.ar      1 <0>        -0.1065
     16 C13        -2.6896   -3.9081    1.8200 C.ar      1 <0>        -0.1144
     17 C14        -2.5307   -3.0152    0.7628 C.ar      1 <0>         0.1205
     18 O1         -1.4661   -2.1800    0.8037 O.3       1 <0>        -0.3048
     19 O2         -5.6697   -5.7266    0.7884 O.3       1 <0>        -0.4915
     20 C15        -0.6002   -2.2681   -1.8627 C.ar      1 <0>        -0.0872
     21 C16        -0.7667   -3.6009   -1.5344 C.ar      1 <0>        -0.0872
     22 C17         0.1649   -4.5356   -1.9430 C.ar      1 <0>        -0.1401
     23 C18         1.2678   -4.1361   -2.6836 C.ar      1 <0>         0.1143
     24 C19         1.4323   -2.7983   -3.0120 C.ar      1 <0>        -0.1465
     25 C20         0.4952   -1.8682   -2.6055 C.ar      1 <0>        -0.0821
     26 O3          2.1859   -5.0537   -3.0863 O.3       1 <0>        -0.5010
     27 C21         3.6167    1.6976    0.9538 C.3       1 <0>        -0.0553
     28 C22         4.5434    1.4353   -0.2369 C.3       1 <0>        -0.1425
     29 C23         5.9072    2.0739    0.0349 C.3       1 <0>        -0.0072
     30 N1          6.4912    1.4912    1.2489 N.4       1 <0>        -0.5062
     31 C24         5.6440    1.8004    2.4070 C.3       1 <0>        -0.0070
     32 C25         4.2701    1.1513    2.2265 C.3       1 <0>        -0.1430
     33 H3         -0.9956    1.6818    0.4514 H         1 <0>         0.1313
     34 H4          1.1604    2.8134    0.8178 H         1 <0>         0.1284
     35 H5          3.1698   -0.9417    0.5912 H         1 <0>         0.1198
     36 H6          1.0141   -2.0728    0.2213 H         1 <0>         0.1300
     37 H7         -5.2048   -3.9624   -1.0902 H         1 <0>         0.1408
     38 H8         -3.8457   -5.4958    2.6548 H         1 <0>         0.1428
     39 H9         -1.9878   -3.8951    2.6408 H         1 <0>         0.1406
     40 H10        -5.4604   -6.5708    0.3659 H         1 <0>         0.3947
     41 H11        -1.6255   -3.9114   -0.9579 H         1 <0>         0.1319
     42 H12         0.0348   -5.5764   -1.6857 H         1 <0>         0.1306
     43 H13         2.2902   -2.4848   -3.5884 H         1 <0>         0.1291
     44 H14         0.6205   -0.8273   -2.8647 H         1 <0>         0.1244
     45 H15         1.9966   -5.4469   -3.9492 H         1 <0>         0.3958
     46 H16         3.4522    2.7698    1.0599 H         1 <0>         0.0971
     47 H17         4.6654    0.3608   -0.3735 H         1 <0>         0.0912
     48 H18         4.1107    1.8706   -1.1377 H         1 <0>         0.1143
     49 H19         6.5694    1.8893   -0.8110 H         1 <0>         0.1345
     50 H20         5.7841    3.1484    0.1710 H         1 <0>         0.1315
     51 H21         6.5594    0.4903    1.1411 H         1 <0>         0.4280
     52 H22         6.1119    1.4138    3.3124 H         1 <0>         0.1347
     53 H23         5.5265    2.8807    2.4926 H         1 <0>         0.1315
     54 H24         3.6420    1.3835    3.0866 H         1 <0>         0.1147
     55 H25         4.3864    0.0709    2.1411 H         1 <0>         0.0911
     56 H26         7.4126    1.8753    1.3954 H         1 <0>         0.4323
@<TRIPOS>BOND
     1    1    6 ar
     2    1    2 ar
     3    1   33 1
     4    2    3 ar
     5    2   34 1
     6    3    4 ar
     7    3   27 1
     8    4    5 ar
     9    4   35 1
    10    5    6 ar
    11    5   36 1
    12    6    7 1
    13    7    8 1
    14    7   18 1
    15    7    9 1
    16    9   10 1
    17    9   11 1
    18    9   20 1
    19   11   12 1
    20   12   17 ar
    21   12   13 ar
    22   13   14 ar
    23   13   37 1
    24   14   15 ar
    25   14   19 1
    26   15   16 ar
    27   15   38 1
    28   16   17 ar
    29   16   39 1
    30   17   18 1
    31   19   40 1
    32   20   25 ar
    33   20   21 ar
    34   21   22 ar
    35   21   41 1
    36   22   23 ar
    37   22   42 1
    38   23   24 ar
    39   23   26 1
    40   24   25 ar
    41   24   43 1
    42   25   44 1
    43   26   45 1
    44   27   32 1
    45   27   28 1
    46   27   46 1
    47   28   29 1
    48   28   47 1
    49   28   48 1
    50   29   30 1
    51   29   49 1
    52   29   50 1
    53   30   31 1
    54   30   51 1
    55   30   56 1
    56   31   32 1
    57   31   52 1
    58   31   53 1
    59   32   54 1
    60   32   55 1
@<TRIPOS>MOLECULE
CHEMBL554789
   61    65     0     0     0
SMALL
USER_CHARGES

@<TRIPOS>ATOM
      1 C1          2.5559    3.0018    0.2206 C.ar      1 <0>        -0.1160
      2 C2          1.8728    1.8105    0.3792 C.ar      1 <0>        -0.1217
      3 C3          2.5302    0.6077    0.2005 C.ar      1 <0>        -0.1168
      4 C4          3.8706    0.5961   -0.1371 C.ar      1 <0>        -0.0763
      5 C5          4.5535    1.7874   -0.2965 C.ar      1 <0>        -0.1118
      6 C6          3.8965    2.9902   -0.1165 C.ar      1 <0>        -0.1207
      7 C7          4.5875   -0.7152   -0.3308 C.3       1 <0>        -0.0795
      8 H1          5.5455   -0.5412   -0.8208 H         1 <0>         0.1022
      9 C8          4.8170   -1.3850    1.0300 C.3       1 <0>         0.0686
     10 O1          3.5567   -1.5048    1.6912 O.3       1 <0>        -0.3027
     11 C9          2.5205   -2.0356    0.9912 C.ar      1 <0>         0.1609
     12 C10         1.4130   -2.4963    1.6945 C.ar      1 <0>        -0.1827
     13 C11         0.3348   -3.0395    1.0168 C.ar      1 <0>         0.1505
     14 C12         0.3610   -3.1235   -0.3684 C.ar      1 <0>        -0.1779
     15 C13         1.4617   -2.6678   -1.0650 C.ar      1 <0>        -0.0620
     16 C14         2.5435   -2.1260   -0.3900 C.ar      1 <0>        -0.1747
     17 C15         3.7312   -1.6494   -1.1892 C.3       1 <0>         0.0025
     18 H2          4.3284   -2.5074   -1.4978 H         1 <0>         0.1007
     19 C16         3.2508   -0.9086   -2.4104 C.ar      1 <0>        -0.0587
     20 C17         2.0307   -0.2578   -2.3869 C.ar      1 <0>        -0.0763
     21 C18         1.5871    0.4216   -3.5042 C.ar      1 <0>        -0.0898
     22 C19         2.3685    0.4514   -4.6530 C.ar      1 <0>        -0.0956
     23 C20         3.5942   -0.2033   -4.6728 C.ar      1 <0>        -0.1311
     24 C21         4.0337   -0.8764   -3.5501 C.ar      1 <0>        -0.0934
     25 S1          1.8063    1.3166   -6.0813 S.3       1 <0>        -0.0650
     26 C22         3.1352    1.0750   -7.2921 C.3       1 <0>        -0.1621
     27 C23         2.7710    1.7850   -8.5976 C.3       1 <0>         0.0150
     28 N1          3.8472    1.5894   -9.5781 N.4       1 <0>        -0.3926
     29 C24         3.8995    0.1675  -10.0044 C.3       1 <0>        -0.0100
     30 C25         4.6302    0.2332  -11.3691 C.3       1 <0>        -0.1450
     31 C26         4.0783    1.5348  -11.9945 C.3       1 <0>        -0.1450
     32 C27         3.5678    2.3680  -10.8042 C.3       1 <0>        -0.0078
     33 O2         -0.7464   -3.4898    1.7062 O.3       1 <0>        -0.4939
     34 H3          2.0412    3.9416    0.3557 H         1 <0>         0.1203
     35 H4          0.8255    1.8196    0.6429 H         1 <0>         0.1195
     36 H5          1.9966   -0.3230    0.3251 H         1 <0>         0.1369
     37 H6          5.6009    1.7783   -0.5600 H         1 <0>         0.1179
     38 H7          4.4301    3.9209   -0.2407 H         1 <0>         0.1203
     39 H8          5.2504   -2.3744    0.8839 H         1 <0>         0.0750
     40 H9          5.4903   -0.7738    1.6311 H         1 <0>         0.1156
     41 H10         1.3939   -2.4304    2.7724 H         1 <0>         0.1411
     42 H11        -0.4789   -3.5454   -0.9004 H         1 <0>         0.1334
     43 H12         1.4799   -2.7341   -2.1429 H         1 <0>         0.1293
     44 H13         1.4240   -0.2813   -1.4938 H         1 <0>         0.1394
     45 H14         0.6339    0.9290   -3.4854 H         1 <0>         0.1293
     46 H15         4.2041   -0.1823   -5.5639 H         1 <0>         0.1160
     47 H16         4.9879   -1.3820   -3.5634 H         1 <0>         0.1286
     48 H17         4.0639    1.4896   -6.8999 H         1 <0>         0.1085
     49 H18         3.2646    0.0095   -7.4819 H         1 <0>         0.1084
     50 H19         1.8424    1.3705   -8.9898 H         1 <0>         0.1402
     51 H20         2.6417    2.8506   -8.4078 H         1 <0>         0.1406
     52 H21         4.4697   -0.4273   -9.2909 H         1 <0>         0.1339
     53 H22         2.8938   -0.2350  -10.1255 H         1 <0>         0.1360
     54 H23         5.7087    0.3010  -11.2263 H         1 <0>         0.0984
     55 H24         4.3750   -0.6291  -11.9851 H         1 <0>         0.1177
     56 H25         4.8713    2.0690  -12.5177 H         1 <0>         0.1062
     57 H26         3.2591    1.3089  -12.6771 H         1 <0>         0.1050
     58 H27         2.4951    2.5356  -10.9012 H         1 <0>         0.1327
     59 H28         4.0935    3.3220  -10.7661 H         1 <0>         0.1342
     60 H29        -1.4280   -2.8193    1.8504 H         1 <0>         0.3970
     61 H30         4.7330    1.8681   -9.1834 H         1 <0>         0.4273
@<TRIPOS>BOND
     1    1    6 ar
     2    1    2 ar
     3    1   34 1
     4    2    3 ar
     5    2   35 1
     6    3    4 ar
     7    3   36 1
     8    4    5 ar
     9    4    7 1
    10    5    6 ar
    11    5   37 1
    12    6   38 1
    13    7    8 1
    14    7   17 1
    15    7    9 1
    16    9   10 1
    17    9   39 1
    18    9   40 1
    19   10   11 1
    20   11   16 ar
    21   11   12 ar
    22   12   13 ar
    23   12   41 1
    24   13   14 ar
    25   13   33 1
    26   14   15 ar
    27   14   42 1
    28   15   16 ar
    29   15   43 1
    30   16   17 1
    31   17   18 1
    32   17   19 1
    33   19   24 ar
    34   19   20 ar
    35   20   21 ar
    36   20   44 1
    37   21   22 ar
    38   21   45 1
    39   22   23 ar
    40   22   25 1
    41   23   24 ar
    42   23   46 1
    43   24   47 1
    44   25   26 1
    45   26   27 1
    46   26   48 1
    47   26   49 1
    48   27   28 1
    49   27   50 1
    50   27   51 1
    51   28   32 1
    52   28   29 1
    53   28   61 1
    54   29   30 1
    55   29   52 1
    56   29   53 1
    57   30   31 1
    58   30   54 1
    59   30   55 1
    60   31   32 1
    61   31   56 1
    62   31   57 1
    63   32   58 1
    64   32   59 1
    65   33   60 1
@<TRIPOS>MOLECULE
CHEMBL19535
   83    86     0     0     0
SMALL
USER_CHARGES

@<TRIPOS>ATOM
      1 C1         -1.2624    1.7087   -0.8055 C.3       1 <0>        -0.1530
      2 C2         -1.6326    1.1176    0.5563 C.3       1 <0>        -0.1168
      3 C3         -0.3898    0.4972    1.1978 C.3       1 <0>        -0.0373
      4 C4          0.0842   -0.6607    0.3579 C.ar      1 <0>        -0.0656
      5 C5         -0.7524   -1.7373    0.1299 C.ar      1 <0>        -0.1145
      6 C6         -0.3176   -2.7995   -0.6405 C.ar      1 <0>        -0.1161
      7 C7          0.9536   -2.7849   -1.1834 C.ar      1 <0>        -0.1240
      8 C8          1.7898   -1.7079   -0.9562 C.ar      1 <0>        -0.1169
      9 C9          1.3535   -0.6438   -0.1893 C.ar      1 <0>        -0.1136
     10 C10        -0.7354    0.0003    2.6030 C.3       1 <0>         0.0007
     11 C11        -1.1279    1.1707    3.4674 C.ar      1 <0>        -0.0811
     12 C12        -2.3319    1.1537    4.1468 C.ar      1 <0>        -0.0961
     13 C13        -2.6942    2.2256    4.9394 C.ar      1 <0>        -0.1407
     14 C14        -1.8486    3.3194    5.0537 C.ar      1 <0>         0.1061
     15 C15        -0.6408    3.3338    4.3713 C.ar      1 <0>        -0.1417
     16 C16        -0.2808    2.2572    3.5841 C.ar      1 <0>        -0.0990
     17 O1         -2.2030    4.3752    5.8325 O.3       1 <0>        -0.4983
     18 C17         0.4648   -0.6866    3.2022 C.ar      1 <0>        -0.0783
     19 C18         1.6908   -0.0474    3.2150 C.ar      1 <0>        -0.0704
     20 C19         2.7925   -0.6751    3.7633 C.ar      1 <0>        -0.1368
     21 C20         2.6679   -1.9476    4.3017 C.ar      1 <0>         0.1105
     22 C21         1.4366   -2.5865    4.2880 C.ar      1 <0>        -0.1975
     23 C22         0.3368   -1.9525    3.7432 C.ar      1 <0>        -0.0701
     24 O2          3.7504   -2.5673    4.8412 O.3       1 <0>        -0.3277
     25 C23         3.5482   -3.8765    5.3772 C.3       1 <0>         0.0255
     26 C24         4.8696   -4.4086    5.9355 C.3       1 <0>        -0.0014
     27 N1          5.2891   -3.5803    7.0739 N.4       1 <0>        -0.3885
     28 C25         6.6173   -4.0115    7.5300 C.3       1 <0>        -0.0529
     29 C26         4.3228   -3.7290    8.1702 C.3       1 <0>        -0.0089
     30 C27         4.6902   -2.7734    9.3071 C.3       1 <0>         0.0475
     31 O3          4.5491   -1.4237    8.8593 O.3       1 <0>        -0.2629
     32 N2          4.8670   -0.4547    9.8417 N.2       1 <0>        -0.3331
     33 C28         4.7791    0.8049    9.5600 C.2       1 <0>         0.1803
     34 C29         5.1103    1.8147   10.5838 C.ar      1 <0>        -0.0981
     35 C30         5.5250    1.4099   11.8574 C.ar      1 <0>        -0.0309
     36 C31         5.8348    2.3480   12.8167 C.ar      1 <0>        -0.1602
     37 C32         5.7381    3.7029   12.5271 C.ar      1 <0>         0.2049
     38 C33         5.3235    4.1201   11.2536 C.ar      1 <0>        -0.1734
     39 C34         5.0158    3.1706   10.2807 C.ar      1 <0>        -0.0290
     40 C35         5.2188    5.5590   10.9434 C.2       1 <0>         0.5608
     41 O4          5.4922    6.3853   11.7924 O.2       1 <0>        -0.5140
     42 N3          4.8202    5.9572    9.7191 N.am      1 <0>        -0.8518
     43 O5          6.0439    4.6222   13.4754 O.3       1 <0>        -0.4740
     44 H1         -0.8219    0.9323   -1.4310 H         1 <0>         0.0565
     45 H2         -2.1586    2.0989   -1.2879 H         1 <0>         0.0565
     46 H3         -0.5431    2.5160   -0.6678 H         1 <0>         0.0532
     47 H4         -2.0193    1.9063    1.2017 H         1 <0>         0.0699
     48 H5         -2.3949    0.3498    0.4240 H         1 <0>         0.0653
     49 H6          0.3989    1.2469    1.2613 H         1 <0>         0.0810
     50 H7         -1.7456   -1.7487    0.5541 H         1 <0>         0.1184
     51 H8         -0.9710   -3.6409   -0.8181 H         1 <0>         0.1202
     52 H9          1.2935   -3.6151   -1.7848 H         1 <0>         0.1193
     53 H10         2.7831   -1.6967   -1.3801 H         1 <0>         0.1190
     54 H11         2.0055    0.1993   -0.0149 H         1 <0>         0.1164
     55 H12        -1.5657   -0.7035    2.5455 H         1 <0>         0.0904
     56 H13        -2.9899    0.3019    4.0575 H         1 <0>         0.1263
     57 H14        -3.6352    2.2121    5.4694 H         1 <0>         0.1301
     58 H15         0.0192    4.1842    4.4587 H         1 <0>         0.1287
     59 H16         0.6614    2.2660    3.0561 H         1 <0>         0.1242
     60 H17        -1.9097    4.3024    6.7511 H         1 <0>         0.3914
     61 H18         1.7872    0.9432    2.7957 H         1 <0>         0.1316
     62 H19         3.7501   -0.1757    3.7724 H         1 <0>         0.1299
     63 H20         1.3371   -3.5772    4.7065 H         1 <0>         0.1246
     64 H21        -0.6230   -2.4477    3.7363 H         1 <0>         0.1274
     65 H22         2.8080   -3.8317    6.1760 H         1 <0>         0.0847
     66 H23         3.1929   -4.5407    4.5894 H         1 <0>         0.1091
     67 H24         4.7359   -5.4388    6.2656 H         1 <0>         0.1507
     68 H25         5.6332   -4.3722    5.1586 H         1 <0>         0.1445
     69 H26         7.3203   -3.9638    6.6983 H         1 <0>         0.1276
     70 H27         6.9571   -3.3551    8.3311 H         1 <0>         0.1248
     71 H28         6.5600   -5.0355    7.8990 H         1 <0>         0.1263
     72 H29         3.3223   -3.4940    7.8070 H         1 <0>         0.1375
     73 H30         4.3444   -4.7553    8.5369 H         1 <0>         0.1522
     74 H31         4.0277   -2.9459   10.1553 H         1 <0>         0.1050
     75 H32         5.7222   -2.9495    9.6105 H         1 <0>         0.0838
     76 H33         4.4633    1.1174    8.5756 H         1 <0>         0.1325
     77 H34         5.6019    0.3579   12.0891 H         1 <0>         0.1418
     78 H35         6.1539    2.0290   13.7979 H         1 <0>         0.1471
     79 H36         4.7002    3.4853    9.2969 H         1 <0>         0.1392
     80 H37         4.6021    5.2979    9.0418 H         1 <0>         0.3979
     81 H38         4.7514    6.9030    9.5152 H         1 <0>         0.4103
     82 H39         6.9729    4.8906   13.4779 H         1 <0>         0.4060
     83 H40         5.3288   -2.6131    6.7894 H         1 <0>         0.4368
@<TRIPOS>BOND
     1    1    2 1
     2    1   44 1
     3    1   45 1
     4    1   46 1
     5    2    3 1
     6    2   47 1
     7    2   48 1
     8    3    4 1
     9    3   10 1
    10    3   49 1
    11    4    9 ar
    12    4    5 ar
    13    5    6 ar
    14    5   50 1
    15    6    7 ar
    16    6   51 1
    17    7    8 ar
    18    7   52 1
    19    8    9 ar
    20    8   53 1
    21    9   54 1
    22   10   11 1
    23   10   18 1
    24   10   55 1
    25   11   16 ar
    26   11   12 ar
    27   12   13 ar
    28   12   56 1
    29   13   14 ar
    30   13   57 1
    31   14   15 ar
    32   14   17 1
    33   15   16 ar
    34   15   58 1
    35   16   59 1
    36   17   60 1
    37   18   23 ar
    38   18   19 ar
    39   19   20 ar
    40   19   61 1
    41   20   21 ar
    42   20   62 1
    43   21   22 ar
    44   21   24 1
    45   22   23 ar
    46   22   63 1
    47   23   64 1
    48   24   25 1
    49   25   26 1
    50   25   65 1
    51   25   66 1
    52   26   27 1
    53   26   67 1
    54   26   68 1
    55   27   28 1
    56   27   29 1
    57   27   83 1
    58   28   69 1
    59   28   70 1
    60   28   71 1
    61   29   30 1
    62   29   72 1
    63   29   73 1
    64   30   31 1
    65   30   74 1
    66   30   75 1
    67   31   32 1
    68   32   33 2
    69   33   34 1
    70   33   76 1
    71   34   39 ar
    72   34   35 ar
    73   35   36 ar
    74   35   77 1
    75   36   37 ar
    76   36   78 1
    77   37   38 ar
    78   37   43 1
    79   38   39 ar
    80   38   40 1
    81   39   79 1
    82   40   41 2
    83   40   42 am
    84   42   80 1
    85   42   81 1
    86   43   82 1
@<TRIPOS>MOLECULE
CHEMBL19535__1
   82    85     0     0     0
SMALL
USER_CHARGES

@<TRIPOS>ATOM
      1 C1         -0.0436    1.8809   -0.9037 C.3       1 <0>        -0.1519
      2 C2         -0.6130    1.3724    0.4222 C.3       1 <0>        -0.1164
      3 C3          0.5119    0.7590    1.2585 C.3       1 <0>        -0.0375
      4 C4          1.0527   -0.4597    0.5561 C.ar      1 <0>        -0.0607
      5 C5          0.2171   -1.5254    0.2788 C.ar      1 <0>        -0.1144
      6 C6          0.7133   -2.6433   -0.3654 C.ar      1 <0>        -0.1175
      7 C7          2.0449   -2.6952   -0.7329 C.ar      1 <0>        -0.1256
      8 C8          2.8803   -1.6291   -0.4564 C.ar      1 <0>        -0.1163
      9 C9          2.3832   -0.5095    0.1841 C.ar      1 <0>        -0.1116
     10 C10        -0.0335    0.3570    2.6303 C.3       1 <0>         0.0057
     11 C11        -0.4875    1.5884    3.3710 C.ar      1 <0>        -0.0742
     12 C12        -1.7634    1.6439    3.9008 C.ar      1 <0>        -0.0980
     13 C13        -2.1822    2.7717    4.5798 C.ar      1 <0>        -0.1417
     14 C14        -1.3211    3.8490    4.7302 C.ar      1 <0>         0.1007
     15 C15        -0.0413    3.7907    4.1980 C.ar      1 <0>        -0.1412
     16 C16         0.3745    2.6585    3.5244 C.ar      1 <0>        -0.0973
     17 O1         -1.7308    4.9599    5.3973 O.3       1 <0>        -0.5003
     18 C17         1.0496   -0.3329    3.4190 C.ar      1 <0>        -0.1039
     19 C18         2.2853    0.2694    3.5675 C.ar      1 <0>        -0.0712
     20 C19         3.2800   -0.3611    4.2896 C.ar      1 <0>        -0.1485
     21 C20         3.0380   -1.5994    4.8665 C.ar      1 <0>         0.1347
     22 C21         1.7972   -2.2014    4.7164 C.ar      1 <0>        -0.2082
     23 C22         0.8041   -1.5644    3.9977 C.ar      1 <0>        -0.0696
     24 O2          4.0151   -2.2218    5.5770 O.3       1 <0>        -0.2948
     25 C23         3.6952   -3.4945    6.1426 C.3       1 <0>         0.0668
     26 C24         4.9095   -4.0357    6.9000 C.3       1 <0>         0.0548
     27 N1          5.2237   -3.1429    8.0235 N.3       1 <0>        -0.5284
     28 C25         6.5892   -3.3736    8.5133 C.3       1 <0>         0.0213
     29 C26         4.2431   -3.2948    9.1067 C.3       1 <0>         0.0521
     30 C27         4.4506   -2.1871   10.1415 C.3       1 <0>         0.0792
     31 O3          4.1637   -0.9198    9.5467 O.3       1 <0>        -0.2122
     32 N2          4.3259    0.1787   10.4253 N.2       1 <0>        -0.3383
     33 C28         4.0966    1.3813   10.0067 C.2       1 <0>         0.1464
     34 C29         4.2657    2.5260   10.9223 C.ar      1 <0>        -0.0746
     35 C30         4.6796    2.3116   12.2417 C.ar      1 <0>        -0.0365
     36 C31         4.8385    3.3762   13.1004 C.ar      1 <0>        -0.1591
     37 C32         4.5892    4.6707   12.6635 C.ar      1 <0>         0.1891
     38 C33         4.1739    4.8974   11.3429 C.ar      1 <0>        -0.1747
     39 C34         4.0189    3.8204   10.4718 C.ar      1 <0>        -0.0380
     40 C35         3.9073    6.2717   10.8761 C.2       1 <0>         0.5641
     41 O4          4.0475    7.2100   11.6366 O.2       1 <0>        -0.5216
     42 N3          3.5083    6.4868    9.6069 N.am      1 <0>        -0.8526
     43 O5          4.7468    5.7151   13.5133 O.3       1 <0>        -0.4765
     44 H1          0.4519    1.0615   -1.4244 H         1 <0>         0.0564
     45 H2         -0.8534    2.2676   -1.5224 H         1 <0>         0.0536
     46 H3          0.6763    2.6758   -0.7090 H         1 <0>         0.0527
     47 H4         -1.0600    2.2032    0.9682 H         1 <0>         0.0686
     48 H5         -1.3730    0.6163    0.2252 H         1 <0>         0.0640
     49 H6          1.3106    1.4899    1.3850 H         1 <0>         0.0807
     50 H7         -0.8232   -1.4848    0.5659 H         1 <0>         0.1171
     51 H8          0.0606   -3.4762   -0.5814 H         1 <0>         0.1181
     52 H9          2.4327   -3.5689   -1.2356 H         1 <0>         0.1175
     53 H10         3.9207   -1.6698   -0.7431 H         1 <0>         0.1183
     54 H11         3.0349    0.3250    0.3967 H         1 <0>         0.1168
     55 H12        -0.8771   -0.3212    2.5014 H         1 <0>         0.0861
     56 H13        -2.4334    0.8049    3.7834 H         1 <0>         0.1250
     57 H14        -3.1791    2.8149    4.9928 H         1 <0>         0.1274
     58 H15         0.6309    4.6281    4.3138 H         1 <0>         0.1274
     59 H16         1.3722    2.6108    3.1137 H         1 <0>         0.1256
     60 H17        -1.5508    4.9370    6.3472 H         1 <0>         0.3900
     61 H18         2.4731    1.2334    3.1182 H         1 <0>         0.1234
     62 H19         4.2452    0.1095    4.4048 H         1 <0>         0.1269
     63 H20         1.6064   -3.1653    5.1645 H         1 <0>         0.1222
     64 H21        -0.1634   -2.0306    3.8843 H         1 <0>         0.1190
     65 H22         2.8567   -3.3861    6.8306 H         1 <0>         0.0606
     66 H23         3.4247   -4.1883    5.3466 H         1 <0>         0.0643
     67 H24         4.6862   -5.0327    7.2797 H         1 <0>         0.0588
     68 H25         5.7648   -4.0867    6.2262 H         1 <0>         0.0881
     69 H26         7.2983   -3.2160    7.7006 H         1 <0>         0.0717
     70 H27         6.8063   -2.6790    9.3248 H         1 <0>         0.0711
     71 H28         6.6763   -4.3971    8.8781 H         1 <0>         0.0267
     72 H29         3.2354   -3.2251    8.6970 H         1 <0>         0.0837
     73 H30         4.3753   -4.2663    9.5829 H         1 <0>         0.0589
     74 H31         3.7833   -2.3507   10.9877 H         1 <0>         0.0610
     75 H32         5.4846   -2.2009   10.4861 H         1 <0>         0.0603
     76 H33         3.7814    1.5472    8.9872 H         1 <0>         0.1264
     77 H34         4.8748    1.3074   12.5878 H         1 <0>         0.1423
     78 H35         5.1579    3.2039   14.1176 H         1 <0>         0.1429
     79 H36         3.7037    3.9887    9.4526 H         1 <0>         0.1374
     80 H37         3.3964    5.7382    9.0002 H         1 <0>         0.3996
     81 H38         3.3330    7.3901    9.3000 H         1 <0>         0.4073
     82 H39         5.6358    6.0956   13.5082 H         1 <0>         0.4005
@<TRIPOS>BOND
     1    1    2 1
     2    1   44 1
     3    1   45 1
     4    1   46 1
     5    2    3 1
     6    2   47 1
     7    2   48 1
     8    3    4 1
     9    3   10 1
    10    3   49 1
    11    4    9 ar
    12    4    5 ar
    13    5    6 ar
    14    5   50 1
    15    6    7 ar
    16    6   51 1
    17    7    8 ar
    18    7   52 1
    19    8    9 ar
    20    8   53 1
    21    9   54 1
    22   10   11 1
    23   10   18 1
    24   10   55 1
    25   11   16 ar
    26   11   12 ar
    27   12   13 ar
    28   12   56 1
    29   13   14 ar
    30   13   57 1
    31   14   15 ar
    32   14   17 1
    33   15   16 ar
    34   15   58 1
    35   16   59 1
    36   17   60 1
    37   18   23 ar
    38   18   19 ar
    39   19   20 ar
    40   19   61 1
    41   20   21 ar
    42   20   62 1
    43   21   22 ar
    44   21   24 1
    45   22   23 ar
    46   22   63 1
    47   23   64 1
    48   24   25 1
    49   25   26 1
    50   25   65 1
    51   25   66 1
    52   26   27 1
    53   26   67 1
    54   26   68 1
    55   27   28 1
    56   27   29 1
    57   28   69 1
    58   28   70 1
    59   28   71 1
    60   29   30 1
    61   29   72 1
    62   29   73 1
    63   30   31 1
    64   30   74 1
    65   30   75 1
    66   31   32 1
    67   32   33 2
    68   33   34 1
    69   33   76 1
    70   34   39 ar
    71   34   35 ar
    72   35   36 ar
    73   35   77 1
    74   36   37 ar
    75   36   78 1
    76   37   38 ar
    77   37   43 1
    78   38   39 ar
    79   38   40 1
    80   39   79 1
    81   40   41 2
    82   40   42 am
    83   42   80 1
    84   42   81 1
    85   43   82 1
@<TRIPOS>MOLECULE
CHEMBL19535__2
   83    86     0     0     0
SMALL
USER_CHARGES

@<TRIPOS>ATOM
      1 C1         -0.6709   -1.8722    5.5385 C.3       1 <0>        -0.1533
      2 C2          0.0570   -1.2845    4.3278 C.3       1 <0>        -0.1147
      3 C3         -0.8928   -1.2504    3.1288 C.3       1 <0>        -0.0353
      4 C4         -1.2723   -2.6583    2.7484 C.ar      1 <0>        -0.0695
      5 C5         -0.2937   -3.5623    2.3796 C.ar      1 <0>        -0.1148
      6 C6         -0.6418   -4.8538    2.0307 C.ar      1 <0>        -0.1156
      7 C7         -1.9686   -5.2414    2.0510 C.ar      1 <0>        -0.1209
      8 C8         -2.9471   -4.3377    2.4207 C.ar      1 <0>        -0.1151
      9 C9         -2.5985   -3.0475    2.7737 C.ar      1 <0>        -0.1123
     10 C10        -0.1974   -0.5725    1.9465 C.3       1 <0>         0.0002
     11 C11        -1.0953   -0.6264    0.7374 C.ar      1 <0>        -0.0748
     12 C12        -2.4002   -0.1780    0.8264 C.ar      1 <0>        -0.0970
     13 C13        -3.2255   -0.2267   -0.2804 C.ar      1 <0>        -0.1425
     14 C14        -2.7439   -0.7256   -1.4819 C.ar      1 <0>         0.1056
     15 C15        -1.4340   -1.1744   -1.5687 C.ar      1 <0>        -0.1402
     16 C16        -0.6112   -1.1188   -0.4604 C.ar      1 <0>        -0.0933
     17 O1         -3.5539   -0.7749   -2.5720 O.3       1 <0>        -0.4986
     18 C17         0.0942    0.8650    2.2921 C.ar      1 <0>        -0.0838
     19 C18         1.3780    1.3604    2.1578 C.ar      1 <0>        -0.0726
     20 C19         1.6479    2.6777    2.4744 C.ar      1 <0>        -0.1369
     21 C20         0.6294    3.5039    2.9270 C.ar      1 <0>         0.1104
     22 C21        -0.6580    3.0045    3.0604 C.ar      1 <0>        -0.1980
     23 C22        -0.9238    1.6879    2.7376 C.ar      1 <0>        -0.0725
     24 O2          0.8925    4.8000    3.2395 O.3       1 <0>        -0.3272
     25 C23        -0.2045    5.5921    3.6991 C.3       1 <0>         0.0253
     26 C24         0.2817    7.0114    3.9991 C.3       1 <0>        -0.0016
     27 N1          0.7155    7.6543    2.7515 N.4       1 <0>        -0.3887
     28 C25         1.3270    8.9544    3.0575 C.3       1 <0>        -0.0531
     29 C26        -0.4456    7.8537    1.8739 C.3       1 <0>        -0.0087
     30 C27         0.0225    8.4080    0.5269 C.3       1 <0>         0.0473
     31 O3          0.8326    7.4335   -0.1336 O.3       1 <0>        -0.2632
     32 N2          1.3195    7.8497   -1.3964 N.2       1 <0>        -0.3333
     33 C28         2.0657    7.0569   -2.0953 C.2       1 <0>         0.1806
     34 C29         2.5732    7.4906   -3.4113 C.ar      1 <0>        -0.0982
     35 C30         2.2521    8.7615   -3.9009 C.ar      1 <0>        -0.0309
     36 C31         2.7226    9.1710   -5.1285 C.ar      1 <0>        -0.1603
     37 C32         3.5193    8.3258   -5.8898 C.ar      1 <0>         0.2049
     38 C33         3.8474    7.0496   -5.4090 C.ar      1 <0>        -0.1734
     39 C34         3.3764    6.6372   -4.1636 C.ar      1 <0>        -0.0289
     40 C35         4.6930    6.1489   -6.2162 C.2       1 <0>         0.5607
     41 O4          5.1065    6.5126   -7.3002 O.2       1 <0>        -0.5141
     42 N3          5.0068    4.9232   -5.7518 N.am      1 <0>        -0.8518
     43 O5          3.9794    8.7340   -7.0980 O.3       1 <0>        -0.4740
     44 H1         -1.0582   -2.8592    5.2857 H         1 <0>         0.0593
     45 H2          0.0238   -1.9575    6.3740 H         1 <0>         0.0551
     46 H3         -1.4971   -1.2185    5.8182 H         1 <0>         0.0515
     47 H4          0.3871   -0.2717    4.5588 H         1 <0>         0.0647
     48 H5          0.9221   -1.9029    4.0886 H         1 <0>         0.0661
     49 H6         -1.7903   -0.6907    3.3920 H         1 <0>         0.0790
     50 H7          0.7429   -3.2594    2.3637 H         1 <0>         0.1172
     51 H8          0.1227   -5.5598    1.7419 H         1 <0>         0.1207
     52 H9         -2.2406   -6.2502    1.7777 H         1 <0>         0.1207
     53 H10        -3.9837   -4.6405    2.4362 H         1 <0>         0.1203
     54 H11        -3.3627   -2.3425    3.0661 H         1 <0>         0.1155
     55 H12         0.7366   -1.0905    1.7287 H         1 <0>         0.0912
     56 H13        -2.7747    0.2103    1.7620 H         1 <0>         0.1210
     57 H14        -4.2450    0.1230   -0.2102 H         1 <0>         0.1267
     58 H15        -1.0568   -1.5632   -2.5030 H         1 <0>         0.1285
     59 H16         0.4099   -1.4640   -0.5286 H         1 <0>         0.1245
     60 H17        -3.5261    0.0219   -3.1191 H         1 <0>         0.3905
     61 H18         2.1705    0.7169    1.8054 H         1 <0>         0.1346
     62 H19         2.6511    3.0640    2.3700 H         1 <0>         0.1317
     63 H20        -1.4526    3.6456    3.4126 H         1 <0>         0.1257
     64 H21        -1.9268    1.2998    2.8371 H         1 <0>         0.1296
     65 H22        -0.9751    5.6271    2.9291 H         1 <0>         0.0848
     66 H23        -0.6169    5.1500    4.6061 H         1 <0>         0.1097
     67 H24        -0.5308    7.5879    4.4414 H         1 <0>         0.1510
     68 H25         1.1186    6.9692    4.6961 H         1 <0>         0.1448
     69 H26         2.1720    8.8091    3.7306 H         1 <0>         0.1276
     70 H27         1.6736    9.4192    2.1345 H         1 <0>         0.1250
     71 H28         0.5893    9.5997    3.5345 H         1 <0>         0.1264
     72 H29        -0.9516    6.9009    1.7187 H         1 <0>         0.1374
     73 H30        -1.1345    8.5597    2.3377 H         1 <0>         0.1523
     74 H31        -0.8446    8.6394   -0.0919 H         1 <0>         0.1051
     75 H32         0.6050    9.3148    0.6897 H         1 <0>         0.0840
     76 H33         2.3172    6.0776   -1.7156 H         1 <0>         0.1326
     77 H34         1.6327    9.4235   -3.3139 H         1 <0>         0.1419
     78 H35         2.4709   10.1531   -5.5008 H         1 <0>         0.1471
     79 H36         3.6292    5.6575   -3.7858 H         1 <0>         0.1394
     80 H37         4.6769    4.6331   -4.8870 H         1 <0>         0.3980
     81 H38         5.5626    4.3312   -6.2825 H         1 <0>         0.4103
     82 H39         4.8345    9.1840   -7.0616 H         1 <0>         0.4060
     83 H40         1.3909    7.0659    2.2871 H         1 <0>         0.4368
@<TRIPOS>BOND
     1    1    2 1
     2    1   44 1
     3    1   45 1
     4    1   46 1
     5    2    3 1
     6    2   47 1
     7    2   48 1
     8    3    4 1
     9    3   10 1
    10    3   49 1
    11    4    9 ar
    12    4    5 ar
    13    5    6 ar
    14    5   50 1
    15    6    7 ar
    16    6   51 1
    17    7    8 ar
    18    7   52 1
    19    8    9 ar
    20    8   53 1
    21    9   54 1
    22   10   11 1
    23   10   18 1
    24   10   55 1
    25   11   16 ar
    26   11   12 ar
    27   12   13 ar
    28   12   56 1
    29   13   14 ar
    30   13   57 1
    31   14   15 ar
    32   14   17 1
    33   15   16 ar
    34   15   58 1
    35   16   59 1
    36   17   60 1
    37   18   23 ar
    38   18   19 ar
    39   19   20 ar
    40   19   61 1
    41   20   21 ar
    42   20   62 1
    43   21   22 ar
    44   21   24 1
    45   22   23 ar
    46   22   63 1
    47   23   64 1
    48   24   25 1
    49   25   26 1
    50   25   65 1
    51   25   66 1
    52   26   27 1
    53   26   67 1
    54   26   68 1
    55   27   28 1
    56   27   29 1
    57   27   83 1
    58   28   69 1
    59   28   70 1
    60   28   71 1
    61   29   30 1
    62   29   72 1
    63   29   73 1
    64   30   31 1
    65   30   74 1
    66   30   75 1
    67   31   32 1
    68   32   33 2
    69   33   34 1
    70   33   76 1
    71   34   39 ar
    72   34   35 ar
    73   35   36 ar
    74   35   77 1
    75   36   37 ar
    76   36   78 1
    77   37   38 ar
    78   37   43 1
    79   38   39 ar
    80   38   40 1
    81   39   79 1
    82   40   41 2
    83   40   42 am
    84   42   80 1
    85   42   81 1
    86   43   82 1
@<TRIPOS>MOLECULE
CHEMBL19535__3
   82    85     0     0     0
SMALL
USER_CHARGES

@<TRIPOS>ATOM
      1 C1         -0.1170   -2.0961    6.0174 C.3       1 <0>        -0.1521
      2 C2          0.5993   -1.5209    4.7939 C.3       1 <0>        -0.1148
      3 C3         -0.3030   -1.6537    3.5655 C.3       1 <0>        -0.0370
      4 C4         -0.5439   -3.1126    3.2745 C.ar      1 <0>        -0.0636
      5 C5          0.5230   -3.9486    3.0029 C.ar      1 <0>        -0.1144
      6 C6          0.3020   -5.2868    2.7360 C.ar      1 <0>        -0.1170
      7 C7         -0.9858   -5.7891    2.7411 C.ar      1 <0>        -0.1248
      8 C8         -2.0526   -4.9533    3.0136 C.ar      1 <0>        -0.1163
      9 C9         -1.8313   -3.6160    3.2847 C.ar      1 <0>        -0.1127
     10 C10         0.3759   -0.9987    2.3609 C.3       1 <0>         0.0060
     11 C11        -0.4644   -1.2192    1.1295 C.ar      1 <0>        -0.0690
     12 C12        -1.8035   -0.8751    1.1370 C.ar      1 <0>        -0.0955
     13 C13        -2.5761   -1.0766    0.0096 C.ar      1 <0>        -0.1419
     14 C14        -2.0070   -1.6243   -1.1309 C.ar      1 <0>         0.1005
     15 C15        -0.6630   -1.9682   -1.1361 C.ar      1 <0>        -0.1412
     16 C16         0.1064   -1.7599   -0.0078 C.ar      1 <0>        -0.0951
     17 O1         -2.7649   -1.8239   -2.2411 O.3       1 <0>        -0.5009
     18 C17         0.5234    0.4802    2.6102 C.ar      1 <0>        -0.1093
     19 C18         1.7604    1.0829    2.4745 C.ar      1 <0>        -0.0730
     20 C19         1.8984    2.4383    2.7029 C.ar      1 <0>        -0.1488
     21 C20         0.7944    3.1949    3.0682 C.ar      1 <0>         0.1346
     22 C21        -0.4457    2.5879    3.2032 C.ar      1 <0>        -0.2082
     23 C22        -0.5795    1.2331    2.9686 C.ar      1 <0>        -0.0724
     24 O2          0.9277    4.5284    3.2939 O.3       1 <0>        -0.2959
     25 C23        -0.2515    5.2444    3.6666 C.3       1 <0>         0.0659
     26 C24         0.0929    6.7202    3.8767 C.3       1 <0>         0.0546
     27 N1          0.4846    7.3191    2.5938 N.3       1 <0>        -0.5293
     28 C25         1.1806    8.5963    2.7997 C.3       1 <0>         0.0209
     29 C26        -0.6802    7.4901    1.7152 C.3       1 <0>         0.0514
     30 C27        -0.2084    7.8777    0.3124 C.3       1 <0>         0.0790
     31 O3          0.5375    6.7987   -0.2544 O.3       1 <0>        -0.2129
     32 N2          1.0226    7.0568   -1.5595 N.2       1 <0>        -0.3384
     33 C28         1.7135    6.1576   -2.1824 C.2       1 <0>         0.1468
     34 C29         2.2190    6.4266   -3.5424 C.ar      1 <0>        -0.0750
     35 C30         1.9559    7.6563   -4.1562 C.ar      1 <0>        -0.0364
     36 C31         2.4248    7.9123   -5.4253 C.ar      1 <0>        -0.1592
     37 C32         3.1622    6.9521   -6.1056 C.ar      1 <0>         0.1892
     38 C33         3.4319    5.7158   -5.5000 C.ar      1 <0>        -0.1748
     39 C34         2.9627    5.4589   -4.2130 C.ar      1 <0>        -0.0378
     40 C35         4.2144    4.6932   -6.2209 C.2       1 <0>         0.5640
     41 O4          4.6266    4.9214   -7.3417 O.2       1 <0>        -0.5217
     42 N3          4.4721    3.5062   -5.6368 N.am      1 <0>        -0.8527
     43 O5          3.6210    7.2092   -7.3551 O.3       1 <0>        -0.4765
     44 H1         -0.4037   -3.1288    5.8184 H         1 <0>         0.0565
     45 H2          0.5511   -2.0640    6.8781 H         1 <0>         0.0535
     46 H3         -1.0087   -1.5055    6.2274 H         1 <0>         0.0518
     47 H4          0.8254   -0.4687    4.9667 H         1 <0>         0.0694
     48 H5          1.5264   -2.0687    4.6248 H         1 <0>         0.0642
     49 H6         -1.2552   -1.1597    3.7590 H         1 <0>         0.0795
     50 H7          1.5292   -3.5561    2.9990 H         1 <0>         0.1179
     51 H8          1.1355   -5.9398    2.5232 H         1 <0>         0.1189
     52 H9         -1.1585   -6.8345    2.5319 H         1 <0>         0.1182
     53 H10        -3.0588   -5.3457    3.0172 H         1 <0>         0.1185
     54 H11        -2.6644   -2.9638    3.5012 H         1 <0>         0.1159
     55 H12         1.3605   -1.4423    2.2131 H         1 <0>         0.0872
     56 H13        -2.2461   -0.4488    2.0252 H         1 <0>         0.1223
     57 H14        -3.6222   -0.8084    0.0163 H         1 <0>         0.1253
     58 H15        -0.2177   -2.3948   -2.0228 H         1 <0>         0.1261
     59 H16         1.1538   -2.0234   -0.0128 H         1 <0>         0.1234
     60 H17        -2.7784   -1.0717   -2.8486 H         1 <0>         0.3894
     61 H18         2.6195    0.4934    2.1901 H         1 <0>         0.1266
     62 H19         2.8650    2.9085    2.5975 H         1 <0>         0.1289
     63 H20        -1.3066    3.1748    3.4875 H         1 <0>         0.1235
     64 H21        -1.5455    0.7609    3.0693 H         1 <0>         0.1214
     65 H22        -0.9965    5.1541    2.8760 H         1 <0>         0.0620
     66 H23        -0.6514    4.8293    4.5917 H         1 <0>         0.0651
     67 H24        -0.7778    7.2439    4.2714 H         1 <0>         0.0589
     68 H25         0.9184    6.8036    4.5837 H         1 <0>         0.0892
     69 H26         2.0868    8.4265    3.3812 H         1 <0>         0.0721
     70 H27         1.4442    9.0263    1.8334 H         1 <0>         0.0713
     71 H28         0.5273    9.2836    3.3372 H         1 <0>         0.0270
     72 H29        -1.2381    6.5550    1.6654 H         1 <0>         0.0840
     73 H30        -1.3228    8.2758    2.1125 H         1 <0>         0.0591
     74 H31        -1.0732    8.0911   -0.3158 H         1 <0>         0.0611
     75 H32         0.4236    8.7637    0.3735 H         1 <0>         0.0605
     76 H33         1.9203    5.2102   -1.7070 H         1 <0>         0.1266
     77 H34         1.3827    8.4072   -3.6327 H         1 <0>         0.1423
     78 H35         2.2180    8.8633   -5.8936 H         1 <0>         0.1429
     79 H36         3.1707    4.5107   -3.7395 H         1 <0>         0.1376
     80 H37         4.1433    3.3242   -4.7426 H         1 <0>         0.3998
     81 H38         4.9865    2.8340   -6.1106 H         1 <0>         0.4073
     82 H39         4.4990    7.6140   -7.3762 H         1 <0>         0.4005
@<TRIPOS>BOND
     1    1    2 1
     2    1   44 1
     3    1   45 1
     4    1   46 1
     5    2    3 1
     6    2   47 1
     7    2   48 1
     8    3    4 1
     9    3   10 1
    10    3   49 1
    11    4    9 ar
    12    4    5 ar
    13    5    6 ar
    14    5   50 1
    15    6    7 ar
    16    6   51 1
    17    7    8 ar
    18    7   52 1
    19    8    9 ar
    20    8   53 1
    21    9   54 1
    22   10   11 1
    23   10   18 1
    24   10   55 1
    25   11   16 ar
    26   11   12 ar
    27   12   13 ar
    28   12   56 1
    29   13   14 ar
    30   13   57 1
    31   14   15 ar
    32   14   17 1
    33   15   16 ar
    34   15   58 1
    35   16   59 1
    36   17   60 1
    37   18   23 ar
    38   18   19 ar
    39   19   20 ar
    40   19   61 1
    41   20   21 ar
    42   20   62 1
    43   21   22 ar
    44   21   24 1
    45   22   23 ar
    46   22   63 1
    47   23   64 1
    48   24   25 1
    49   25   26 1
    50   25   65 1
    51   25   66 1
    52   26   27 1
    53   26   67 1
    54   26   68 1
    55   27   28 1
    56   27   29 1
    57   28   69 1
    58   28   70 1
    59   28   71 1
    60   29   30 1
    61   29   72 1
    62   29   73 1
    63   30   31 1
    64   30   74 1
    65   30   75 1
    66   31   32 1
    67   32   33 2
    68   33   34 1
    69   33   76 1
    70   34   39 ar
    71   34   35 ar
    72   35   36 ar
    73   35   77 1
    74   36   37 ar
    75   36   78 1
    76   37   38 ar
    77   37   43 1
    78   38   39 ar
    79   38   40 1
    80   39   79 1
    81   40   41 2
    82   40   42 am
    83   42   80 1
    84   42   81 1
    85   43   82 1
@<TRIPOS>MOLECULE
CHEMBL19535__4
   83    86     0     0     0
SMALL
USER_CHARGES

@<TRIPOS>ATOM
      1 C1         -0.6106   -0.2411    2.2618 C.3       1 <0>        -0.1524
      2 C2          0.5945    0.0792    1.3752 C.3       1 <0>        -0.1148
      3 C3          1.8847   -0.2353    2.1350 C.3       1 <0>        -0.0359
      4 C4          1.9615   -1.7163    2.4030 C.ar      1 <0>        -0.0687
      5 C5          1.9744   -2.6098    1.3483 C.ar      1 <0>        -0.1153
      6 C6          2.0449   -3.9683    1.5941 C.ar      1 <0>        -0.1159
      7 C7          2.1030   -4.4333    2.8946 C.ar      1 <0>        -0.1215
      8 C8          2.0910   -3.5398    3.9493 C.ar      1 <0>        -0.1160
      9 C9          2.0248   -2.1811    3.7033 C.ar      1 <0>        -0.1121
     10 C10         3.0890    0.1941    1.2948 C.3       1 <0>         0.0004
     11 C11         4.3600   -0.1226    2.0400 C.ar      1 <0>        -0.0762
     12 C12         4.5218    0.3095    3.3434 C.ar      1 <0>        -0.0976
     13 C13         5.6861    0.0209    4.0286 C.ar      1 <0>        -0.1420
     14 C14         6.6934   -0.7035    3.4079 C.ar      1 <0>         0.1059
     15 C15         6.5285   -1.1363    2.1002 C.ar      1 <0>        -0.1407
     16 C16         5.3601   -0.8496    1.4211 C.ar      1 <0>        -0.0930
     17 O1          7.8399   -0.9883    4.0796 O.3       1 <0>        -0.5013
     18 C17         3.0162    1.6764    1.0332 C.ar      1 <0>        -0.0836
     19 C18         2.9023    2.5592    2.0912 C.ar      1 <0>        -0.0727
     20 C19         2.8349    3.9184    1.8541 C.ar      1 <0>        -0.1366
     21 C20         2.8819    4.3975    0.5529 C.ar      1 <0>         0.1108
     22 C21         2.9966    3.5097   -0.5069 C.ar      1 <0>        -0.1980
     23 C22         3.0689    2.1517   -0.2642 C.ar      1 <0>        -0.0729
     24 O2          2.8153    5.7342    0.3170 O.3       1 <0>        -0.3275
     25 C23         2.8694    6.1556   -1.0474 C.3       1 <0>         0.0253
     26 C24         2.7815    7.6817   -1.1137 C.3       1 <0>        -0.0015
     27 N1          3.9652    8.2687   -0.4717 N.4       1 <0>        -0.3887
     28 C25         3.8079    9.7272   -0.3947 C.3       1 <0>        -0.0528
     29 C26         5.1612    7.9462   -1.2615 C.3       1 <0>        -0.0085
     30 C27         6.4068    8.4496   -0.5295 C.3       1 <0>         0.0474
     31 O3          6.5599    7.7338    0.6978 O.3       1 <0>        -0.2633
     32 N2          7.6897    8.1259    1.4561 N.2       1 <0>        -0.3334
     33 C28         7.9392    7.5525    2.5888 C.2       1 <0>         0.1808
     34 C29         9.1165    7.9611    3.3790 C.ar      1 <0>        -0.0980
     35 C30         9.9599    8.9726    2.9061 C.ar      1 <0>        -0.0309
     36 C31        11.0601    9.3573    3.6393 C.ar      1 <0>        -0.1604
     37 C32        11.3409    8.7444    4.8534 C.ar      1 <0>         0.2048
     38 C33        10.5024    7.7293    5.3371 C.ar      1 <0>        -0.1733
     39 C34         9.3851    7.3440    4.5981 C.ar      1 <0>        -0.0286
     40 C35        10.7988    7.0755    6.6265 C.2       1 <0>         0.5610
     41 O4         11.7714    7.4165    7.2716 O.2       1 <0>        -0.5146
     42 N3          9.9915    6.1005    7.0890 N.am      1 <0>        -0.8515
     43 O5         12.4258    9.1268    5.5709 O.3       1 <0>        -0.4739
     44 H1         -0.5143    0.2871    3.2104 H         1 <0>         0.0531
     45 H2         -1.5250    0.0762    1.7605 H         1 <0>         0.0545
     46 H3         -0.6510   -1.3146    2.4461 H         1 <0>         0.0579
     47 H4          0.5499   -0.5253    0.4692 H         1 <0>         0.0653
     48 H5          0.5785    1.1358    1.1081 H         1 <0>         0.0651
     49 H6          1.8902    0.3059    3.0812 H         1 <0>         0.0804
     50 H7          1.9291   -2.2465    0.3322 H         1 <0>         0.1170
     51 H8          2.0543   -4.6664    0.7701 H         1 <0>         0.1206
     52 H9          2.1573   -5.4947    3.0866 H         1 <0>         0.1206
     53 H10         2.1360   -3.9031    4.9653 H         1 <0>         0.1204
     54 H11         2.0192   -1.4828    4.5272 H         1 <0>         0.1165
     55 H12         3.0805   -0.3431    0.3464 H         1 <0>         0.0903
     56 H13         3.7373    0.8735    3.8261 H         1 <0>         0.1226
     57 H14         5.8123    0.3593    5.0464 H         1 <0>         0.1274
     58 H15         7.3112   -1.7004    1.6148 H         1 <0>         0.1282
     59 H16         5.2294   -1.1901    0.4045 H         1 <0>         0.1238
     60 H17         7.8126   -1.8223    4.5684 H         1 <0>         0.3936
     61 H18         2.8658    2.1857    3.1040 H         1 <0>         0.1340
     62 H19         2.7453    4.6075    2.6808 H         1 <0>         0.1314
     63 H20         3.0333    3.8802   -1.5207 H         1 <0>         0.1262
     64 H21         3.1626    1.4604   -1.0886 H         1 <0>         0.1297
     65 H22         3.8082    5.8261   -1.4925 H         1 <0>         0.0850
     66 H23         2.0345    5.7195   -1.5958 H         1 <0>         0.1096
     67 H24         2.7388    7.9982   -2.1558 H         1 <0>         0.1509
     68 H25         1.8832    8.0167   -0.5951 H         1 <0>         0.1445
     69 H26         2.8871    9.9657    0.1376 H         1 <0>         0.1275
     70 H27         4.6568   10.1567    0.1372 H         1 <0>         0.1249
     71 H28         3.7630   10.1415   -1.4020 H         1 <0>         0.1263
     72 H29         5.2290    6.8664   -1.3937 H         1 <0>         0.1374
     73 H30         5.0933    8.4281   -2.2368 H         1 <0>         0.1522
     74 H31         7.2851    8.2903   -1.1550 H         1 <0>         0.1050
     75 H32         6.2991    9.5136   -0.3186 H         1 <0>         0.0838
     76 H33         7.2858    6.7749    2.9559 H         1 <0>         0.1327
     77 H34         9.7473    9.4530    1.9625 H         1 <0>         0.1418
     78 H35        11.7073   10.1384    3.2685 H         1 <0>         0.1470
     79 H36         8.7331    6.5661    4.9672 H         1 <0>         0.1394
     80 H37         9.2156    5.8284    6.5744 H         1 <0>         0.3981
     81 H38        10.1863    5.6707    7.9365 H         1 <0>         0.4102
     82 H39        12.2507    9.8422    6.1975 H         1 <0>         0.4057
     83 H40         4.0650    7.8916    0.4588 H         1 <0>         0.4369
@<TRIPOS>BOND
     1    1    2 1
     2    1   44 1
     3    1   45 1
     4    1   46 1
     5    2    3 1
     6    2   47 1
     7    2   48 1
     8    3    4 1
     9    3   10 1
    10    3   49 1
    11    4    9 ar
    12    4    5 ar
    13    5    6 ar
    14    5   50 1
    15    6    7 ar
    16    6   51 1
    17    7    8 ar
    18    7   52 1
    19    8    9 ar
    20    8   53 1
    21    9   54 1
    22   10   11 1
    23   10   18 1
    24   10   55 1
    25   11   16 ar
    26   11   12 ar
    27   12   13 ar
    28   12   56 1
    29   13   14 ar
    30   13   57 1
    31   14   15 ar
    32   14   17 1
    33   15   16 ar
    34   15   58 1
    35   16   59 1
    36   17   60 1
    37   18   23 ar
    38   18   19 ar
    39   19   20 ar
    40   19   61 1
    41   20   21 ar
    42   20   62 1
    43   21   22 ar
    44   21   24 1
    45   22   23 ar
    46   22   63 1
    47   23   64 1
    48   24   25 1
    49   25   26 1
    50   25   65 1
    51   25   66 1
    52   26   27 1
    53   26   67 1
    54   26   68 1
    55   27   28 1
    56   27   29 1
    57   27   83 1
    58   28   69 1
    59   28   70 1
    60   28   71 1
    61   29   30 1
    62   29   72 1
    63   29   73 1
    64   30   31 1
    65   30   74 1
    66   30   75 1
    67   31   32 1
    68   32   33 2
    69   33   34 1
    70   33   76 1
    71   34   39 ar
    72   34   35 ar
    73   35   36 ar
    74   35   77 1
    75   36   37 ar
    76   36   78 1
    77   37   38 ar
    78   37   43 1
    79   38   39 ar
    80   38   40 1
    81   39   79 1
    82   40   41 2
    83   40   42 am
    84   42   80 1
    85   42   81 1
    86   43   82 1
@<TRIPOS>MOLECULE
CHEMBL19535__5
   82    85     0     0     0
SMALL
USER_CHARGES

@<TRIPOS>ATOM
      1 C1          1.9517    2.7591    2.5102 C.3       1 <0>        -0.1516
      2 C2          1.6190    1.3705    1.9606 C.3       1 <0>        -0.1152
      3 C3          2.2649    0.3032    2.8465 C.3       1 <0>        -0.0371
      4 C4          1.6452    0.3476    4.2194 C.ar      1 <0>        -0.0642
      5 C5          0.2893    0.1268    4.3732 C.ar      1 <0>        -0.1152
      6 C6         -0.2792    0.1675    5.6326 C.ar      1 <0>        -0.1174
      7 C7          0.5083    0.4286    6.7383 C.ar      1 <0>        -0.1248
      8 C8          1.8644    0.6486    6.5846 C.ar      1 <0>        -0.1165
      9 C9          2.4336    0.6036    5.3257 C.ar      1 <0>        -0.1122
     10 C10         2.0377   -1.0780    2.2288 C.3       1 <0>         0.0057
     11 C11         2.6739   -2.1292    3.1013 C.ar      1 <0>        -0.0695
     12 C12         1.9356   -3.2231    3.5137 C.ar      1 <0>        -0.0952
     13 C13         2.5163   -4.1879    4.3139 C.ar      1 <0>        -0.1416
     14 C14         3.8416   -4.0588    4.7033 C.ar      1 <0>         0.1004
     15 C15         4.5804   -2.9605    4.2878 C.ar      1 <0>        -0.1415
     16 C16         3.9965   -2.0011    3.4834 C.ar      1 <0>        -0.0956
     17 O1          4.4150   -5.0063    5.4909 O.3       1 <0>        -0.5004
     18 C17         2.6574   -1.1224    0.8558 C.ar      1 <0>        -0.1087
     19 C18         3.9741   -0.7385    0.6802 C.ar      1 <0>        -0.0730
     20 C19         4.5443   -0.7778   -0.5774 C.ar      1 <0>        -0.1483
     21 C20         3.7949   -1.2034   -1.6646 C.ar      1 <0>         0.1346
     22 C21         2.4742   -1.5885   -1.4856 C.ar      1 <0>        -0.2088
     23 C22         1.9101   -1.5523   -0.2251 C.ar      1 <0>        -0.0724
     24 O2          4.3535   -1.2426   -2.9029 O.3       1 <0>        -0.2944
     25 C23         3.5227   -1.6914   -3.9755 C.3       1 <0>         0.0662
     26 C24         4.3190   -1.6674   -5.2817 C.3       1 <0>         0.0544
     27 N1          5.4368   -2.6162   -5.1913 N.3       1 <0>        -0.5286
     28 C25         6.4484   -2.3375   -6.2193 C.3       1 <0>         0.0217
     29 C26         4.9595   -4.0024   -5.2846 C.3       1 <0>         0.0523
     30 C27         6.1022   -4.9596   -4.9398 C.3       1 <0>         0.0793
     31 O3          6.4776   -4.7802   -3.5727 O.3       1 <0>        -0.2125
     32 N2          7.5336   -5.6237   -3.1500 N.2       1 <0>        -0.3383
     33 C28         7.9662   -5.5580   -1.9325 C.2       1 <0>         0.1466
     34 C29         9.0665   -6.4369   -1.4920 C.ar      1 <0>        -0.0748
     35 C30         9.6460   -7.3375   -2.3926 C.ar      1 <0>        -0.0365
     36 C31        10.6728   -8.1604   -1.9867 C.ar      1 <0>        -0.1591
     37 C32        11.1408   -8.1026   -0.6805 C.ar      1 <0>         0.1891
     38 C33        10.5674   -7.2036    0.2309 C.ar      1 <0>        -0.1747
     39 C34         9.5322   -6.3662   -0.1815 C.ar      1 <0>        -0.0379
     40 C35        11.0621   -7.1406    1.6198 C.2       1 <0>         0.5640
     41 O4         11.9682   -7.8688    1.9760 O.2       1 <0>        -0.5215
     42 N3         10.5094   -6.2759    2.4935 N.am      1 <0>        -0.8526
     43 O5         12.1517   -8.9154   -0.2860 O.3       1 <0>        -0.4765
     44 H1          3.0328    2.8978    2.5167 H         1 <0>         0.0528
     45 H2          1.4916    3.5194    1.8791 H         1 <0>         0.0533
     46 H3          1.5678    2.8493    3.5264 H         1 <0>         0.0556
     47 H4          0.5379    1.2318    1.9542 H         1 <0>         0.0634
     48 H5          2.0030    1.2803    0.9445 H         1 <0>         0.0701
     49 H6          3.3351    0.4948    2.9245 H         1 <0>         0.0806
     50 H7         -0.3260   -0.0772    3.5094 H         1 <0>         0.1176
     51 H8         -1.3387   -0.0044    5.7527 H         1 <0>         0.1188
     52 H9          0.0641    0.4611    7.7221 H         1 <0>         0.1184
     53 H10         2.4796    0.8529    7.4484 H         1 <0>         0.1189
     54 H11         3.4937    0.7718    5.2060 H         1 <0>         0.1168
     55 H12         0.9675   -1.2696    2.1507 H         1 <0>         0.0863
     56 H13         0.9039   -3.3231    3.2103 H         1 <0>         0.1227
     57 H14         1.9390   -5.0418    4.6364 H         1 <0>         0.1258
     58 H15         5.6122   -2.8577    4.5897 H         1 <0>         0.1261
     59 H16         4.5725   -1.1482    3.1560 H         1 <0>         0.1235
     60 H17         4.8357   -5.7247    4.9990 H         1 <0>         0.3890
     61 H18         4.5570   -0.4072    1.5268 H         1 <0>         0.1255
     62 H19         5.5726   -0.4772   -0.7143 H         1 <0>         0.1284
     63 H20         1.8888   -1.9202   -2.3304 H         1 <0>         0.1238
     64 H21         0.8834   -1.8562   -0.0845 H         1 <0>         0.1215
     65 H22         3.1864   -2.7083   -3.7736 H         1 <0>         0.0611
     66 H23         2.6581   -1.0338   -4.0649 H         1 <0>         0.0651
     67 H24         3.6683   -1.9503   -6.1091 H         1 <0>         0.0590
     68 H25         4.7076   -0.6633   -5.4520 H         1 <0>         0.0884
     69 H26         6.7527   -1.2927   -6.1558 H         1 <0>         0.0714
     70 H27         7.3152   -2.9787   -6.0594 H         1 <0>         0.0711
     71 H28         6.0280   -2.5341   -7.2056 H         1 <0>         0.0270
     72 H29         4.1371   -4.1514   -4.5849 H         1 <0>         0.0837
     73 H30         4.6136   -4.2001   -6.2992 H         1 <0>         0.0591
     74 H31         5.7744   -5.9875   -5.0947 H         1 <0>         0.0610
     75 H32         6.9577   -4.7503   -5.5820 H         1 <0>         0.0601
     76 H33         7.5219   -4.8598   -1.2385 H         1 <0>         0.1264
     77 H34         9.2864   -7.3877   -3.4098 H         1 <0>         0.1423
     78 H35        11.1155   -8.8536   -2.6867 H         1 <0>         0.1429
     79 H36         9.0895   -5.6687    0.5141 H         1 <0>         0.1374
     80 H37         9.7864   -5.6950    2.2093 H         1 <0>         0.3996
     81 H38        10.8345   -6.2346    3.4064 H         1 <0>         0.4074
     82 H39        13.0325   -8.5358   -0.4094 H         1 <0>         0.4005
@<TRIPOS>BOND
     1    1    2 1
     2    1   44 1
     3    1   45 1
     4    1   46 1
     5    2    3 1
     6    2   47 1
     7    2   48 1
     8    3    4 1
     9    3   10 1
    10    3   49 1
    11    4    9 ar
    12    4    5 ar
    13    5    6 ar
    14    5   50 1
    15    6    7 ar
    16    6   51 1
    17    7    8 ar
    18    7   52 1
    19    8    9 ar
    20    8   53 1
    21    9   54 1
    22   10   11 1
    23   10   18 1
    24   10   55 1
    25   11   16 ar
    26   11   12 ar
    27   12   13 ar
    28   12   56 1
    29   13   14 ar
    30   13   57 1
    31   14   15 ar
    32   14   17 1
    33   15   16 ar
    34   15   58 1
    35   16   59 1
    36   17   60 1
    37   18   23 ar
    38   18   19 ar
    39   19   20 ar
    40   19   61 1
    41   20   21 ar
    42   20   62 1
    43   21   22 ar
    44   21   24 1
    45   22   23 ar
    46   22   63 1
    47   23   64 1
    48   24   25 1
    49   25   26 1
    50   25   65 1
    51   25   66 1
    52   26   27 1
    53   26   67 1
    54   26   68 1
    55   27   28 1
    56   27   29 1
    57   28   69 1
    58   28   70 1
    59   28   71 1
    60   29   30 1
    61   29   72 1
    62   29   73 1
    63   30   31 1
    64   30   74 1
    65   30   75 1
    66   31   32 1
    67   32   33 2
    68   33   34 1
    69   33   76 1
    70   34   39 ar
    71   34   35 ar
    72   35   36 ar
    73   35   77 1
    74   36   37 ar
    75   36   78 1
    76   37   38 ar
    77   37   43 1
    78   38   39 ar
    79   38   40 1
    80   39   79 1
    81   40   41 2
    82   40   42 am
    83   42   80 1
    84   42   81 1
    85   43   82 1
@<TRIPOS>MOLECULE
CHEMBL19535__6
   83    86     0     0     0
SMALL
USER_CHARGES

@<TRIPOS>ATOM
      1 C1         -0.1126   -1.6434   -2.3954 C.3       1 <0>        -0.1516
      2 C2          1.0326   -0.9490   -1.6556 C.3       1 <0>        -0.1178
      3 C3          1.0383   -1.3942   -0.1918 C.3       1 <0>        -0.0372
      4 C4          1.3729   -2.8616   -0.1144 C.ar      1 <0>        -0.0636
      5 C5          2.5813   -3.3217   -0.6033 C.ar      1 <0>        -0.1139
      6 C6          2.8882   -4.6677   -0.5322 C.ar      1 <0>        -0.1154
      7 C7          1.9869   -5.5535    0.0281 C.ar      1 <0>        -0.1248
      8 C8          0.7789   -5.0932    0.5178 C.ar      1 <0>        -0.1177
      9 C9          0.4738   -3.7466    0.4506 C.ar      1 <0>        -0.1135
     10 C10         2.0858   -0.5908    0.5815 C.3       1 <0>         0.0011
     11 C11         1.7393    0.8746    0.5223 C.ar      1 <0>        -0.0826
     12 C12         0.4883    1.3048    0.9246 C.ar      1 <0>        -0.0989
     13 C13         0.1680    2.6475    0.8709 C.ar      1 <0>        -0.1414
     14 C14         1.1029    3.5647    0.4132 C.ar      1 <0>         0.1071
     15 C15         2.3575    3.1306    0.0105 C.ar      1 <0>        -0.1405
     16 C16         2.6747    1.7874    0.0711 C.ar      1 <0>        -0.0962
     17 O1          0.7901    4.8860    0.3590 O.3       1 <0>        -0.4988
     18 C17         2.1066   -1.0444    2.0185 C.ar      1 <0>        -0.0788
     19 C18         0.9296   -1.0998    2.7418 C.ar      1 <0>        -0.0713
     20 C19         0.9460   -1.5149    4.0593 C.ar      1 <0>        -0.1368
     21 C20         2.1449   -1.8767    4.6564 C.ar      1 <0>         0.1108
     22 C21         3.3245   -1.8206    3.9284 C.ar      1 <0>        -0.1972
     23 C22         3.3019   -1.4098    2.6096 C.ar      1 <0>        -0.0698
     24 O2          2.1637   -2.2849    5.9525 O.3       1 <0>        -0.3288
     25 C23         3.4337   -2.6421    6.5018 C.3       1 <0>         0.0257
     26 C24         3.2562   -3.0722    7.9593 C.3       1 <0>        -0.0011
     27 N1          2.3835   -4.2523    8.0189 N.4       1 <0>        -0.3882
     28 C25         2.0867   -4.5716    9.4217 C.3       1 <0>        -0.0532
     29 C26         3.0603   -5.3941    7.3894 C.3       1 <0>        -0.0083
     30 C27         2.1056   -6.5886    7.3394 C.3       1 <0>         0.0475
     31 O3          1.0041   -6.2825    6.4820 O.3       1 <0>        -0.2618
     32 N2          0.0566   -7.3283    6.3660 N.2       1 <0>        -0.3329
     33 C28        -0.9878   -7.1749    5.6180 C.2       1 <0>         0.1802
     34 C29        -1.9753   -8.2648    5.4972 C.ar      1 <0>        -0.0976
     35 C30        -1.7851   -9.4620    6.1960 C.ar      1 <0>        -0.0310
     36 C31        -2.7032  -10.4825    6.0864 C.ar      1 <0>        -0.1602
     37 C32        -3.8247  -10.3309    5.2815 C.ar      1 <0>         0.2047
     38 C33        -4.0255   -9.1351    4.5763 C.ar      1 <0>        -0.1732
     39 C34        -3.0995   -8.0997    4.6920 C.ar      1 <0>        -0.0290
     40 C35        -5.2158   -8.9716    3.7195 C.2       1 <0>         0.5608
     41 O4         -6.0246   -9.8744    3.6238 O.2       1 <0>        -0.5142
     42 N3         -5.4064   -7.8216    3.0431 N.am      1 <0>        -0.8518
     43 O5         -4.7251  -11.3390    5.1769 O.3       1 <0>        -0.4740
     44 H1         -1.0501   -1.4553   -1.8720 H         1 <0>         0.0531
     45 H2         -0.1788   -1.2529   -3.4109 H         1 <0>         0.0567
     46 H3          0.0751   -2.7165   -2.4302 H         1 <0>         0.0549
     47 H4          1.9811   -1.2174   -2.1207 H         1 <0>         0.0656
     48 H5          0.8958    0.1312   -1.7063 H         1 <0>         0.0711
     49 H6          0.0541   -1.2225    0.2440 H         1 <0>         0.0810
     50 H7          3.2854   -2.6296   -1.0410 H         1 <0>         0.1192
     51 H8          3.8320   -5.0272   -0.9148 H         1 <0>         0.1202
     52 H9          2.2264   -6.6051    0.0830 H         1 <0>         0.1180
     53 H10         0.0746   -5.7853    0.9553 H         1 <0>         0.1168
     54 H11        -0.4684   -3.3865    0.8366 H         1 <0>         0.1161
     55 H12         3.0678   -0.7502    0.1359 H         1 <0>         0.0903
     56 H13        -0.2391    0.5904    1.2809 H         1 <0>         0.1239
     57 H14        -0.8095    2.9829    1.1846 H         1 <0>         0.1292
     58 H15         3.0870    3.8426   -0.3462 H         1 <0>         0.1303
     59 H16         3.6528    1.4495   -0.2381 H         1 <0>         0.1262
     60 H17         1.0000    5.3734    1.1674 H         1 <0>         0.3926
     61 H18        -0.0034   -0.8181    2.2765 H         1 <0>         0.1320
     62 H19         0.0265   -1.5573    4.6241 H         1 <0>         0.1299
     63 H20         4.2590   -2.1017    4.3910 H         1 <0>         0.1249
     64 H21         4.2193   -1.3702    2.0411 H         1 <0>         0.1275
     65 H22         3.8584   -3.4664    5.9289 H         1 <0>         0.0850
     66 H23         4.1040   -1.7839    6.4552 H         1 <0>         0.1089
     67 H24         4.2285   -3.3173    8.3868 H         1 <0>         0.1505
     68 H25         2.8051   -2.2577    8.5261 H         1 <0>         0.1439
     69 H26         1.6186   -3.7107    9.8991 H         1 <0>         0.1274
     70 H27         1.4088   -5.4241    9.4647 H         1 <0>         0.1249
     71 H28         3.0125   -4.8169    9.9422 H         1 <0>         0.1262
     72 H29         3.3597   -5.1256    6.3763 H         1 <0>         0.1373
     73 H30         3.9433   -5.6588    7.9711 H         1 <0>         0.1518
     74 H31         2.6344   -7.4605    6.9544 H         1 <0>         0.1049
     75 H32         1.7368   -6.8013    8.3429 H         1 <0>         0.0836
     76 H33        -1.1370   -6.2492    5.0821 H         1 <0>         0.1323
     77 H34        -0.9148   -9.5864    6.8234 H         1 <0>         0.1418
     78 H35        -2.5503  -11.4042    6.6282 H         1 <0>         0.1469
     79 H36        -3.2506   -7.1749    4.1552 H         1 <0>         0.1391
     80 H37        -4.7612   -7.1013    3.1195 H         1 <0>         0.3978
     81 H38        -6.1888   -7.7141    2.4799 H         1 <0>         0.4102
     82 H39        -5.4346  -11.3023    5.8329 H         1 <0>         0.4059
     83 H40         1.5230   -4.0594    7.5285 H         1 <0>         0.4372
@<TRIPOS>BOND
     1    1    2 1
     2    1   44 1
     3    1   45 1
     4    1   46 1
     5    2    3 1
     6    2   47 1
     7    2   48 1
     8    3    4 1
     9    3   10 1
    10    3   49 1
    11    4    9 ar
    12    4    5 ar
    13    5    6 ar
    14    5   50 1
    15    6    7 ar
    16    6   51 1
    17    7    8 ar
    18    7   52 1
    19    8    9 ar
    20    8   53 1
    21    9   54 1
    22   10   11 1
    23   10   18 1
    24   10   55 1
    25   11   16 ar
    26   11   12 ar
    27   12   13 ar
    28   12   56 1
    29   13   14 ar
    30   13   57 1
    31   14   15 ar
    32   14   17 1
    33   15   16 ar
    34   15   58 1
    35   16   59 1
    36   17   60 1
    37   18   23 ar
    38   18   19 ar
    39   19   20 ar
    40   19   61 1
    41   20   21 ar
    42   20   62 1
    43   21   22 ar
    44   21   24 1
    45   22   23 ar
    46   22   63 1
    47   23   64 1
    48   24   25 1
    49   25   26 1
    50   25   65 1
    51   25   66 1
    52   26   27 1
    53   26   67 1
    54   26   68 1
    55   27   28 1
    56   27   29 1
    57   27   83 1
    58   28   69 1
    59   28   70 1
    60   28   71 1
    61   29   30 1
    62   29   72 1
    63   29   73 1
    64   30   31 1
    65   30   74 1
    66   30   75 1
    67   31   32 1
    68   32   33 2
    69   33   34 1
    70   33   76 1
    71   34   39 ar
    72   34   35 ar
    73   35   36 ar
    74   35   77 1
    75   36   37 ar
    76   36   78 1
    77   37   38 ar
    78   37   43 1
    79   38   39 ar
    80   38   40 1
    81   39   79 1
    82   40   41 2
    83   40   42 am
    84   42   80 1
    85   42   81 1
    86   43   82 1
@<TRIPOS>MOLECULE
CHEMBL19535__7
   82    85     0     0     0
SMALL
USER_CHARGES

@<TRIPOS>ATOM
      1 C1         -0.6896    1.7569   -0.7403 C.3       1 <0>        -0.1512
      2 C2         -0.0344    0.3874   -0.5506 C.3       1 <0>        -0.1169
      3 C3          0.7565    0.3773    0.7591 C.3       1 <0>        -0.0371
      4 C4         -0.1923    0.5297    1.9200 C.ar      1 <0>        -0.0610
      5 C5         -1.1860   -0.4084    2.1282 C.ar      1 <0>        -0.1146
      6 C6         -2.0563   -0.2687    3.1931 C.ar      1 <0>        -0.1173
      7 C7         -1.9325    0.8089    4.0501 C.ar      1 <0>        -0.1247
      8 C8         -0.9382    1.7465    3.8424 C.ar      1 <0>        -0.1157
      9 C9         -0.0653    1.6045    2.7800 C.ar      1 <0>        -0.1111
     10 C10         1.5122   -0.9467    0.8884 C.3       1 <0>         0.0057
     11 C11         2.4609   -1.0990   -0.2725 C.ar      1 <0>        -0.0744
     12 C12         3.3612   -0.0912   -0.5649 C.ar      1 <0>        -0.0971
     13 C13         4.2316   -0.2282   -1.6289 C.ar      1 <0>        -0.1411
     14 C14         4.2022   -1.3785   -2.4039 C.ar      1 <0>         0.1006
     15 C15         3.2983   -2.3885   -2.1081 C.ar      1 <0>        -0.1416
     16 C16         2.4335   -2.2488   -1.0400 C.ar      1 <0>        -0.0985
     17 O1          5.0572   -1.5155   -3.4514 O.3       1 <0>        -0.5008
     18 C17         2.2912   -0.9566    2.1784 C.ar      1 <0>        -0.1044
     19 C18         3.1355    0.0952    2.4828 C.ar      1 <0>        -0.0720
     20 C19         3.8510    0.0883    3.6645 C.ar      1 <0>        -0.1484
     21 C20         3.7215   -0.9749    4.5463 C.ar      1 <0>         0.1346
     22 C21         2.8734   -2.0288    4.2387 C.ar      1 <0>        -0.2083
     23 C22         2.1561   -2.0147    3.0581 C.ar      1 <0>        -0.0693
     24 O2          4.4247   -0.9842    5.7092 O.3       1 <0>        -0.2947
     25 C23         4.2419   -2.1110    6.5689 C.3       1 <0>         0.0660
     26 C24         5.1083   -1.9447    7.8188 C.3       1 <0>         0.0548
     27 N1          4.6595   -0.7664    8.5726 N.3       1 <0>        -0.5281
     28 C25         5.6673   -0.3579    9.5602 C.3       1 <0>         0.0217
     29 C26         3.3626   -1.0157    9.2160 C.3       1 <0>         0.0520
     30 C27         2.8112    0.2964    9.7774 C.3       1 <0>         0.0796
     31 O3          2.5330    1.1951    8.7018 O.3       1 <0>        -0.2113
     32 N2          2.0155    2.4464    9.1160 N.2       1 <0>        -0.3381
     33 C28         1.7226    3.3486    8.2361 C.2       1 <0>         0.1464
     34 C29         1.1832    4.6525    8.6677 C.ar      1 <0>        -0.0742
     35 C30         0.9939    4.9154   10.0290 C.ar      1 <0>        -0.0367
     36 C31         0.4904    6.1303   10.4372 C.ar      1 <0>        -0.1591
     37 C32         0.1668    7.1037    9.5009 C.ar      1 <0>         0.1889
     38 C33         0.3525    6.8510    8.1337 C.ar      1 <0>        -0.1744
     39 C34         0.8679    5.6236    7.7207 C.ar      1 <0>        -0.0381
     40 C35         0.0086    7.8830    7.1365 C.2       1 <0>         0.5640
     41 O4         -0.4365    8.9547    7.4995 O.2       1 <0>        -0.5217
     42 N3          0.1880    7.6377    5.8235 N.am      1 <0>        -0.8525
     43 O5         -0.3289    8.2979    9.9084 O.3       1 <0>        -0.4766
     44 H1          0.0813    2.5267   -0.7755 H         1 <0>         0.0527
     45 H2         -1.2530    1.7641   -1.6733 H         1 <0>         0.0535
     46 H3         -1.3638    1.9557    0.0928 H         1 <0>         0.0558
     47 H4         -0.8053   -0.3824   -0.5154 H         1 <0>         0.0639
     48 H5          0.6397    0.1886   -1.3837 H         1 <0>         0.0692
     49 H6          1.4677    1.2033    0.7604 H         1 <0>         0.0806
     50 H7         -1.2827   -1.2504    1.4587 H         1 <0>         0.1172
     51 H8         -2.8331   -1.0013    3.3554 H         1 <0>         0.1180
     52 H9         -2.6129    0.9185    4.8816 H         1 <0>         0.1170
     53 H10        -0.8418    2.5886    4.5117 H         1 <0>         0.1173
     54 H11         0.7139    2.3350    2.6199 H         1 <0>         0.1166
     55 H12         0.8009   -1.7726    0.8872 H         1 <0>         0.0862
     56 H13         3.3836    0.8041    0.0387 H         1 <0>         0.1255
     57 H14         4.9341    0.5596   -1.8573 H         1 <0>         0.1276
     58 H15         3.2734   -3.2849   -2.7100 H         1 <0>         0.1275
     59 H16         1.7326   -3.0367   -0.8066 H         1 <0>         0.1251
     60 H17         5.8994   -1.9305   -3.2200 H         1 <0>         0.3905
     61 H18         3.2360    0.9226    1.7961 H         1 <0>         0.1238
     62 H19         4.5110    0.9097    3.9015 H         1 <0>         0.1271
     63 H20         2.7709   -2.8576    4.9235 H         1 <0>         0.1223
     64 H21         1.4923   -2.8327    2.8203 H         1 <0>         0.1192
     65 H22         3.1937   -2.1796    6.8599 H         1 <0>         0.0611
     66 H23         4.5333   -3.0202    6.0431 H         1 <0>         0.0645
     67 H24         5.0176   -2.8325    8.4446 H         1 <0>         0.0581
     68 H25         6.1495   -1.8126    7.5243 H         1 <0>         0.0885
     69 H26         6.6271   -0.2172    9.0631 H         1 <0>         0.0712
     70 H27         5.3597    0.5774   10.0277 H         1 <0>         0.0712
     71 H28         5.7630   -1.1309   10.3227 H         1 <0>         0.0268
     72 H29         2.6646   -1.4188    8.4824 H         1 <0>         0.0840
     73 H30         3.4913   -1.7324   10.0272 H         1 <0>         0.0586
     74 H31         1.8937    0.0976   10.3313 H         1 <0>         0.0607
     75 H32         3.5481    0.7446   10.4440 H         1 <0>         0.0598
     76 H33         1.8728    3.1473    7.1857 H         1 <0>         0.1263
     77 H34         1.2432    4.1626   10.7621 H         1 <0>         0.1422
     78 H35         0.3463    6.3269   11.4893 H         1 <0>         0.1427
     79 H36         1.0174    5.4245    6.6698 H         1 <0>         0.1373
     80 H37         0.5432    6.7828    5.5339 H         1 <0>         0.3996
     81 H38        -0.0380    8.3161    5.1680 H         1 <0>         0.4073
     82 H39         0.3479    8.9673   10.0786 H         1 <0>         0.4004
@<TRIPOS>BOND
     1    1    2 1
     2    1   44 1
     3    1   45 1
     4    1   46 1
     5    2    3 1
     6    2   47 1
     7    2   48 1
     8    3    4 1
     9    3   10 1
    10    3   49 1
    11    4    9 ar
    12    4    5 ar
    13    5    6 ar
    14    5   50 1
    15    6    7 ar
    16    6   51 1
    17    7    8 ar
    18    7   52 1
    19    8    9 ar
    20    8   53 1
    21    9   54 1
    22   10   11 1
    23   10   18 1
    24   10   55 1
    25   11   16 ar
    26   11   12 ar
    27   12   13 ar
    28   12   56 1
    29   13   14 ar
    30   13   57 1
    31   14   15 ar
    32   14   17 1
    33   15   16 ar
    34   15   58 1
    35   16   59 1
    36   17   60 1
    37   18   23 ar
    38   18   19 ar
    39   19   20 ar
    40   19   61 1
    41   20   21 ar
    42   20   62 1
    43   21   22 ar
    44   21   24 1
    45   22   23 ar
    46   22   63 1
    47   23   64 1
    48   24   25 1
    49   25   26 1
    50   25   65 1
    51   25   66 1
    52   26   27 1
    53   26   67 1
    54   26   68 1
    55   27   28 1
    56   27   29 1
    57   28   69 1
    58   28   70 1
    59   28   71 1
    60   29   30 1
    61   29   72 1
    62   29   73 1
    63   30   31 1
    64   30   74 1
    65   30   75 1
    66   31   32 1
    67   32   33 2
    68   33   34 1
    69   33   76 1
    70   34   39 ar
    71   34   35 ar
    72   35   36 ar
    73   35   77 1
    74   36   37 ar
    75   36   78 1
    76   37   38 ar
    77   37   43 1
    78   38   39 ar
    79   38   40 1
    80   39   79 1
    81   40   41 2
    82   40   42 am
    83   42   80 1
    84   42   81 1
    85   43   82 1
@<TRIPOS>MOLECULE
CHEMBL221626
   39    42     0     0     0
SMALL
USER_CHARGES

@<TRIPOS>ATOM
      1 C1          6.5139   -2.4177   -2.7700 C.ar      1 <0>        -0.1078
      2 C2          5.4571   -3.1746   -2.2996 C.ar      1 <0>        -0.1234
      3 C3          4.5502   -2.6211   -1.4152 C.ar      1 <0>        -0.0895
      4 C4          4.7004   -1.3109   -1.0009 C.ar      1 <0>        -0.1194
      5 C5          5.7577   -0.5543   -1.4706 C.ar      1 <0>        -0.1024
      6 C6          6.6638   -1.1074   -2.3560 C.ar      1 <0>        -0.1234
      7 C7          3.7112   -0.7071   -0.0376 C.3       1 <0>         0.1701
      8 N1          4.0901   -1.0558    1.3340 N.pl3     1 <0>        -0.3854
      9 C8          4.8083   -0.2568    2.1867 C.ar      1 <0>         0.1401
     10 C9          4.9494   -0.9674    3.3924 C.ar      1 <0>        -0.1543
     11 C10         5.6460   -0.3943    4.4590 C.ar      1 <0>        -0.0332
     12 C11         6.1863    0.8525    4.3257 C.ar      1 <0>        -0.1479
     13 C12         6.0498    1.5591    3.1377 C.ar      1 <0>        -0.0549
     14 C13         5.3672    1.0151    2.0723 C.ar      1 <0>        -0.0609
     15 Cl1         5.2051    1.9087    0.5928 Cl        1 <0>        -0.0622
     16 C14         4.2630   -2.2490    3.1974 C.2       1 <0>         0.1393
     17 N2          3.7713   -2.2533    1.9822 N.2       1 <0>        -0.2265
     18 C15         4.1420   -3.3384    4.1950 C.ar      1 <0>        -0.0277
     19 C16         5.1853   -3.5895    5.0855 C.ar      1 <0>        -0.0769
     20 C17         5.0695   -4.6039    6.0124 C.ar      1 <0>        -0.1437
     21 C18         3.9160   -5.3751    6.0593 C.ar      1 <0>         0.1185
     22 C19         2.8756   -5.1281    5.1739 C.ar      1 <0>        -0.1445
     23 C20         2.9823   -4.1109    4.2489 C.ar      1 <0>        -0.0698
     24 O1          3.8053   -6.3743    6.9736 O.3       1 <0>        -0.4986
     25 H1          7.2249   -2.8516   -3.4574 H         1 <0>         0.1243
     26 H2          5.3397   -4.1982   -2.6233 H         1 <0>         0.1249
     27 H3          3.7241   -3.2122   -1.0483 H         1 <0>         0.1247
     28 H4          5.8748    0.4694   -1.1471 H         1 <0>         0.1253
     29 H5          7.4896   -0.5162   -2.7233 H         1 <0>         0.1246
     30 H6          3.7101    0.3771   -0.1497 H         1 <0>         0.1103
     31 H7          2.7148   -1.0952   -0.2491 H         1 <0>         0.1023
     32 H8          5.7567   -0.9359    5.3869 H         1 <0>         0.1356
     33 H9          6.7245    1.2936    5.1517 H         1 <0>         0.1400
     34 H10         6.4825    2.5446    3.0487 H         1 <0>         0.1428
     35 H11         6.0832   -2.9905    5.0490 H         1 <0>         0.1325
     36 H12         5.8772   -4.7989    6.7024 H         1 <0>         0.1357
     37 H13         1.9798   -5.7300    5.2128 H         1 <0>         0.1347
     38 H14         2.1706   -3.9161    3.5635 H         1 <0>         0.1328
     39 H15         3.4176   -6.0964    7.8148 H         1 <0>         0.3941
@<TRIPOS>BOND
     1    1    6 ar
     2    1    2 ar
     3    1   25 1
     4    2    3 ar
     5    2   26 1
     6    3    4 ar
     7    3   27 1
     8    4    5 ar
     9    4    7 1
    10    5    6 ar
    11    5   28 1
    12    6   29 1
    13    7    8 1
    14    7   30 1
    15    7   31 1
    16    8   17 1
    17    8    9 1
    18    9   14 ar
    19    9   10 ar
    20   10   11 ar
    21   10   16 1
    22   11   12 ar
    23   11   32 1
    24   12   13 ar
    25   12   33 1
    26   13   14 ar
    27   13   34 1
    28   14   15 1
    29   16   17 2
    30   16   18 1
    31   18   23 ar
    32   18   19 ar
    33   19   20 ar
    34   19   35 1
    35   20   21 ar
    36   20   36 1
    37   21   22 ar
    38   21   24 1
    39   22   23 ar
    40   22   37 1
    41   23   38 1
    42   24   39 1
@<TRIPOS>MOLECULE
CHEMBL276660
   67    68     0     0     0
SMALL
USER_CHARGES

@<TRIPOS>ATOM
      1 C1          0.3785   -5.2116   -2.0886 C.3       1 <0>        -0.1533
      2 C2          0.7210   -3.9475   -1.2976 C.3       1 <0>        -0.1230
      3 C3          1.5575   -4.3233   -0.0728 C.3       1 <0>        -0.1119
      4 C4          1.9000   -3.0592    0.7182 C.3       1 <0>        -0.0922
      5 C5          2.6176   -3.4399    1.9875 C.2       1 <0>        -0.0664
      6 C6          1.9262   -3.6159    3.1203 C.2       1 <0>        -0.0786
      7 C7          2.6398   -3.9103    4.3862 C.ar      1 <0>        -0.0438
      8 C8          3.4467   -2.9379    4.9757 C.ar      1 <0>        -0.0908
      9 C9          4.1087   -3.2146    6.1532 C.ar      1 <0>        -0.1417
     10 C10         3.9723   -4.4599    6.7519 C.ar      1 <0>         0.1081
     11 C11         3.1699   -5.4305    6.1672 C.ar      1 <0>        -0.1429
     12 C12         2.5007   -5.1581    4.9927 C.ar      1 <0>        -0.0934
     13 O1          4.6258   -4.7295    7.9122 O.3       1 <0>        -0.4988
     14 C13         0.4470   -3.5165    3.1090 C.ar      1 <0>        -0.0417
     15 C14        -0.1687   -2.2807    2.9142 C.ar      1 <0>        -0.0681
     16 C15        -1.5447   -2.1916    2.9043 C.ar      1 <0>        -0.1375
     17 C16        -2.3170   -3.3307    3.0884 C.ar      1 <0>         0.1092
     18 C17        -1.7069   -4.5627    3.2826 C.ar      1 <0>        -0.1981
     19 C18        -0.3314   -4.6595    3.2875 C.ar      1 <0>        -0.0680
     20 O2         -3.6726   -3.2394    3.0790 O.3       1 <0>        -0.3279
     21 C19        -4.4057   -4.4504    3.2745 C.3       1 <0>         0.0263
     22 C20        -5.9055   -4.1510    3.2325 C.3       1 <0>        -0.0060
     23 N1         -6.2746   -3.6858    1.8888 N.4       1 <0>        -0.3873
     24 C21        -6.0677   -4.7713    0.9209 C.3       1 <0>        -0.0175
     25 C22        -6.3368   -4.2520   -0.4929 C.3       1 <0>        -0.1879
     26 C23        -7.6878   -3.2849    1.8804 C.3       1 <0>        -0.0157
     27 C24        -7.8794   -2.0723    2.7935 C.3       1 <0>        -0.1892
     28 C25         4.1135   -3.6225    1.9816 C.3       1 <0>        -0.0985
     29 C26         4.4509   -5.0537    1.5591 C.3       1 <0>        -0.1447
     30 H1         -0.1897   -5.8934   -1.4558 H         1 <0>         0.0500
     31 H2         -0.2174   -4.9439   -2.9611 H         1 <0>         0.0536
     32 H3          1.2986   -5.6981   -2.4123 H         1 <0>         0.0566
     33 H4          1.2893   -3.2658   -1.9304 H         1 <0>         0.0632
     34 H5         -0.1991   -3.4610   -0.9738 H         1 <0>         0.0560
     35 H6          0.9892   -5.0051    0.5600 H         1 <0>         0.0600
     36 H7          2.4776   -4.8098   -0.3966 H         1 <0>         0.0672
     37 H8          2.5426   -2.4168    0.1162 H         1 <0>         0.0742
     38 H9          0.9823   -2.5257    0.9657 H         1 <0>         0.0747
     39 H10         3.5535   -1.9692    4.5103 H         1 <0>         0.1275
     40 H11         4.7341   -2.4620    6.6101 H         1 <0>         0.1316
     41 H12         3.0661   -6.3983    6.6351 H         1 <0>         0.1296
     42 H13         1.8728   -5.9118    4.5409 H         1 <0>         0.1222
     43 H14         4.1215   -4.5106    8.7077 H         1 <0>         0.3928
     44 H15         0.4315   -1.3943    2.7716 H         1 <0>         0.1354
     45 H16        -2.0222   -1.2347    2.7535 H         1 <0>         0.1329
     46 H17        -2.3104   -5.4468    3.4260 H         1 <0>         0.1265
     47 H18         0.1425   -5.6188    3.4341 H         1 <0>         0.1283
     48 H19        -4.1543   -5.1587    2.4850 H         1 <0>         0.0856
     49 H20        -4.1477   -4.8790    4.2429 H         1 <0>         0.1084
     50 H21        -6.4636   -5.0568    3.4694 H         1 <0>         0.1490
     51 H22        -6.1421   -3.3770    3.9626 H         1 <0>         0.1442
     52 H23        -5.0395   -5.1267    0.9878 H         1 <0>         0.1282
     53 H24        -6.7507   -5.5912    1.1429 H         1 <0>         0.1310
     54 H25        -5.6473   -3.4385   -0.7186 H         1 <0>         0.0810
     55 H26        -6.1927   -5.0599   -1.2103 H         1 <0>         0.1068
     56 H27        -7.3621   -3.8876   -0.5572 H         1 <0>         0.0815
     57 H28        -7.9858   -3.0255    0.8645 H         1 <0>         0.1338
     58 H29        -8.3019   -4.1108    2.2395 H         1 <0>         0.1300
     59 H30        -8.9298   -1.7813    2.7955 H         1 <0>         0.1069
     60 H31        -7.5714   -2.3285    3.8072 H         1 <0>         0.0800
     61 H32        -7.2734   -1.2431    2.4283 H         1 <0>         0.0816
     62 H33         4.5624   -2.9207    1.2787 H         1 <0>         0.0727
     63 H34         4.5061   -3.4366    2.9813 H         1 <0>         0.0784
     64 H35         3.9102   -5.7567    2.1928 H         1 <0>         0.0545
     65 H36         4.1600   -5.2038    0.5194 H         1 <0>         0.0568
     66 H37         5.5230   -5.2204    1.6641 H         1 <0>         0.0598
     67 H38        -5.6994   -2.8961    1.6365 H         1 <0>         0.4293
@<TRIPOS>BOND
     1    1    2 1
     2    1   30 1
     3    1   31 1
     4    1   32 1
     5    2    3 1
     6    2   33 1
     7    2   34 1
     8    3    4 1
     9    3   35 1
    10    3   36 1
    11    4    5 1
    12    4   37 1
    13    4   38 1
    14    5    6 2
    15    5   28 1
    16    6    7 1
    17    6   14 1
    18    7   12 ar
    19    7    8 ar
    20    8    9 ar
    21    8   39 1
    22    9   10 ar
    23    9   40 1
    24   10   11 ar
    25   10   13 1
    26   11   12 ar
    27   11   41 1
    28   12   42 1
    29   13   43 1
    30   14   19 ar
    31   14   15 ar
    32   15   16 ar
    33   15   44 1
    34   16   17 ar
    35   16   45 1
    36   17   18 ar
    37   17   20 1
    38   18   19 ar
    39   18   46 1
    40   19   47 1
    41   20   21 1
    42   21   22 1
    43   21   48 1
    44   21   49 1
    45   22   23 1
    46   22   50 1
    47   22   51 1
    48   23   24 1
    49   23   26 1
    50   23   67 1
    51   24   25 1
    52   24   52 1
    53   24   53 1
    54   25   54 1
    55   25   55 1
    56   25   56 1
    57   26   27 1
    58   26   57 1
    59   26   58 1
    60   27   59 1
    61   27   60 1
    62   27   61 1
    63   28   29 1
    64   28   62 1
    65   28   63 1
    66   29   64 1
    67   29   65 1
    68   29   66 1
@<TRIPOS>MOLECULE
CHEMBL200799
   33    35     0     0     0
SMALL
USER_CHARGES

@<TRIPOS>ATOM
      1 C1         -0.0167    1.3793    0.0096 C.ar      1 <0>        -0.1113
      2 C2          1.1685    2.0928    0.0021 C.ar      1 <0>        -0.1199
      3 C3          2.3774    1.4278   -0.0130 C.ar      1 <0>        -0.0879
      4 C4          2.4029    0.0333   -0.0207 C.ar      1 <0>        -0.0136
      5 C5          1.2046   -0.6805   -0.0131 C.ar      1 <0>        -0.0987
      6 C6          0.0021   -0.0041    0.0020 C.ar      1 <0>        -0.1195
      7 C7          3.6973   -0.6867   -0.0375 C.2       1 <0>         0.0684
      8 C8          3.9726   -1.8886    0.5884 C.2       1 <0>         0.0785
      9 N1          5.2874   -2.1768    0.3054 N.pl3     1 <0>        -0.5306
     10 H1          5.7817   -2.9571    0.6017 H         1 <0>         0.4318
     11 C9          5.7646   -1.1673   -0.4660 C.2       1 <0>         0.1170
     12 N2          4.8192   -0.2934   -0.6697 N.2       1 <0>        -0.4103
     13 C10         7.1676   -1.0745   -1.0082 C.3       1 <0>         0.5653
     14 F1          7.4084    0.2282   -1.4581 F         1 <0>        -0.1462
     15 F2          8.0803   -1.3950    0.0024 F         1 <0>        -0.1678
     16 F3          7.3165   -1.9704   -2.0723 F         1 <0>        -0.1640
     17 C11         3.0417   -2.7000    1.3981 C.ar      1 <0>        -0.0463
     18 C12         2.2226   -2.0863    2.3485 C.ar      1 <0>        -0.0615
     19 C13         1.3547   -2.8475    3.1019 C.ar      1 <0>        -0.1408
     20 C14         1.2945   -4.2225    2.9173 C.ar      1 <0>         0.1240
     21 C15         2.1070   -4.8367    1.9735 C.ar      1 <0>        -0.1430
     22 C16         2.9736   -4.0825    1.2118 C.ar      1 <0>        -0.0857
     23 O1          0.4382   -4.9692    3.6628 O.3       1 <0>        -0.4978
     24 H2         -0.9604    1.9042    0.0260 H         1 <0>         0.1241
     25 H3          1.1475    3.1726    0.0078 H         1 <0>         0.1264
     26 H4          3.3020    1.9860   -0.0192 H         1 <0>         0.1282
     27 H5          1.2180   -1.7604   -0.0194 H         1 <0>         0.1230
     28 H6         -0.9264   -0.5556    0.0083 H         1 <0>         0.1251
     29 H7          2.2693   -1.0171    2.4932 H         1 <0>         0.1351
     30 H8          0.7210   -2.3738    3.8370 H         1 <0>         0.1378
     31 H9          2.0572   -5.9065    1.8335 H         1 <0>         0.1360
     32 H10         3.6021   -4.5605    0.4749 H         1 <0>         0.1279
     33 H11        -0.4377   -5.0757    3.2670 H         1 <0>         0.3962
@<TRIPOS>BOND
     1    1    6 ar
     2    1    2 ar
     3    1   24 1
     4    2    3 ar
     5    2   25 1
     6    3    4 ar
     7    3   26 1
     8    4    5 ar
     9    4    7 1
    10    5    6 ar
    11    5   27 1
    12    6   28 1
    13    7   12 1
    14    7    8 2
    15    8    9 1
    16    8   17 1
    17    9   10 1
    18    9   11 1
    19   11   12 2
    20   11   13 1
    21   13   14 1
    22   13   15 1
    23   13   16 1
    24   17   22 ar
    25   17   18 ar
    26   18   19 ar
    27   18   29 1
    28   19   20 ar
    29   19   30 1
    30   20   21 ar
    31   20   23 1
    32   21   22 ar
    33   21   31 1
    34   22   32 1
    35   23   33 1
@<TRIPOS>MOLECULE
CHEMBL200799__1
   33    35     0     0     0
SMALL
USER_CHARGES

@<TRIPOS>ATOM
      1 C1         -0.0167    1.3795    0.0096 C.ar      1 <0>        -0.1031
      2 C2          1.1683    2.0940    0.0021 C.ar      1 <0>        -0.1163
      3 C3          2.3774    1.4304   -0.0134 C.ar      1 <0>        -0.1034
      4 C4          2.4038    0.0341   -0.0211 C.ar      1 <0>        -0.0371
      5 C5          1.2040   -0.6806   -0.0130 C.ar      1 <0>        -0.0807
      6 C6          0.0021   -0.0041    0.0020 C.ar      1 <0>        -0.1151
      7 C7          3.6944   -0.6832   -0.0382 C.2       1 <0>         0.0756
      8 C8          4.0485   -1.7742    0.7342 C.2       1 <0>         0.0703
      9 N1          5.3085   -2.1109    0.4008 N.2       1 <0>        -0.4122
     10 H1          4.8510    0.3066   -1.4871 H         1 <0>         0.4317
     11 C9          5.7472   -1.3005   -0.5216 C.2       1 <0>         0.1178
     12 N2          4.7848   -0.4042   -0.8304 N.pl3     1 <0>        -0.5281
     13 C10         7.1152   -1.3587   -1.1509 C.3       1 <0>         0.5648
     14 F1          7.7106   -2.5907   -0.8596 F         1 <0>        -0.1461
     15 F2          6.9973   -1.2139   -2.5374 F         1 <0>        -0.1681
     16 F3          7.9079   -0.3253   -0.6399 F         1 <0>        -0.1638
     17 C11         3.1981   -2.4479    1.7431 C.ar      1 <0>        -0.0215
     18 C12         2.3048   -1.7037    2.5136 C.ar      1 <0>        -0.0802
     19 C13         1.5145   -2.3342    3.4514 C.ar      1 <0>        -0.1438
     20 C14         1.6075   -3.7079    3.6294 C.ar      1 <0>         0.1138
     21 C15         2.4959   -4.4517    2.8645 C.ar      1 <0>        -0.1453
     22 C16         3.2848   -3.8287    1.9206 C.ar      1 <0>        -0.0710
     23 O1          0.8274   -4.3259    4.5548 O.3       1 <0>        -0.4990
     24 H2         -0.9606    1.9042    0.0260 H         1 <0>         0.1283
     25 H3          1.1463    3.1738    0.0081 H         1 <0>         0.1294
     26 H4          3.3015    1.9893   -0.0199 H         1 <0>         0.1227
     27 H5          1.2172   -1.7605   -0.0192 H         1 <0>         0.1297
     28 H6         -0.9265   -0.5555    0.0082 H         1 <0>         0.1309
     29 H7          2.2324   -0.6349    2.3762 H         1 <0>         0.1286
     30 H8          0.8226   -1.7586    4.0484 H         1 <0>         0.1323
     31 H9          2.5662   -5.5201    3.0061 H         1 <0>         0.1332
     32 H10         3.9725   -4.4085    1.3228 H         1 <0>         0.1334
     33 H11        -0.0257   -4.6263    4.2127 H         1 <0>         0.3924
@<TRIPOS>BOND
     1    1    6 ar
     2    1    2 ar
     3    1   24 1
     4    2    3 ar
     5    2   25 1
     6    3    4 ar
     7    3   26 1
     8    4    5 ar
     9    4    7 1
    10    5    6 ar
    11    5   27 1
    12    6   28 1
    13    7    8 2
    14    7   12 1
    15    8    9 1
    16    8   17 1
    17    9   11 2
    18   10   12 1
    19   11   13 1
    20   11   12 1
    21   13   14 1
    22   13   15 1
    23   13   16 1
    24   17   22 ar
    25   17   18 ar
    26   18   19 ar
    27   18   29 1
    28   19   20 ar
    29   19   30 1
    30   20   21 ar
    31   20   23 1
    32   21   22 ar
    33   21   31 1
    34   22   32 1
    35   23   33 1
@<TRIPOS>MOLECULE
CHEMBL200021
   32    34     0     0     0
SMALL
USER_CHARGES

@<TRIPOS>ATOM
      1 C1          0.1454    1.6497   -0.1752 C.ar      1 <0>        -0.1016
      2 C2          1.3625    2.2727   -0.3848 C.ar      1 <0>        -0.1176
      3 C3          2.5307    1.5385   -0.3550 C.ar      1 <0>        -0.0873
      4 C4          2.4826    0.1670   -0.1128 C.ar      1 <0>        -0.0538
      5 C5          1.2537   -0.4554    0.0981 C.ar      1 <0>        -0.0858
      6 C6          0.0917    0.2886    0.0657 C.ar      1 <0>        -0.1174
      7 C7          3.7349   -0.6276   -0.0800 C.2       1 <0>        -0.1114
      8 C8          4.1670   -1.6189   -1.0730 C.2       1 <0>         0.1662
      9 N1          5.3235   -2.0854   -0.6694 N.2       1 <0>        -0.2671
     10 O1          5.6660   -1.4432    0.5429 O.3       1 <0>        -0.0452
     11 C9          4.7021   -0.5723    0.8706 C.2       1 <0>        -0.0272
     12 C10         4.6919    0.3149    2.0887 C.3       1 <0>         0.5563
     13 F1          4.0715   -0.3553    3.1486 F         1 <0>        -0.1552
     14 F2          6.0068    0.6337    2.4444 F         1 <0>        -0.1578
     15 F3          3.9879    1.4898    1.8040 F         1 <0>        -0.1476
     16 C11         3.4343   -2.0169   -2.2990 C.ar      1 <0>        -0.0566
     17 C12         2.7984   -1.0507   -3.0775 C.ar      1 <0>        -0.0568
     18 C13         2.1183   -1.4239   -4.2172 C.ar      1 <0>        -0.1449
     19 C14         2.0662   -2.7605   -4.5901 C.ar      1 <0>         0.1336
     20 C15         2.6981   -3.7252   -3.8166 C.ar      1 <0>        -0.1464
     21 C16         3.3847   -3.3575   -2.6789 C.ar      1 <0>        -0.0615
     22 O2          1.3953   -3.1251   -5.7136 O.3       1 <0>        -0.4969
     23 H1         -0.7659    2.2288   -0.1954 H         1 <0>         0.1274
     24 H2          1.3986    3.3357   -0.5724 H         1 <0>         0.1296
     25 H3          3.4804    2.0259   -0.5194 H         1 <0>         0.1257
     26 H4          1.2106   -1.5180    0.2863 H         1 <0>         0.1243
     27 H5         -0.8612   -0.1927    0.2286 H         1 <0>         0.1290
     28 H6          2.8382   -0.0110   -2.7878 H         1 <0>         0.1343
     29 H7          1.6252   -0.6759   -4.8204 H         1 <0>         0.1392
     30 H8          2.6553   -4.7640   -4.1088 H         1 <0>         0.1395
     31 H9          3.8801   -4.1077   -2.0804 H         1 <0>         0.1351
     32 H10         1.9391   -3.1270   -6.5132 H         1 <0>         0.3976
@<TRIPOS>BOND
     1    1    6 ar
     2    1    2 ar
     3    1   23 1
     4    2    3 ar
     5    2   24 1
     6    3    4 ar
     7    3   25 1
     8    4    5 ar
     9    4    7 1
    10    5    6 ar
    11    5   26 1
    12    6   27 1
    13    7   11 2
    14    7    8 1
    15    8    9 2
    16    8   16 1
    17    9   10 1
    18   10   11 1
    19   11   12 1
    20   12   13 1
    21   12   14 1
    22   12   15 1
    23   16   21 ar
    24   16   17 ar
    25   17   18 ar
    26   17   28 1
    27   18   19 ar
    28   18   29 1
    29   19   20 ar
    30   19   22 1
    31   20   21 ar
    32   20   30 1
    33   21   31 1
    34   22   32 1
@<TRIPOS>MOLECULE
CHEMBL184074
   79    81     0     0     0
SMALL
USER_CHARGES

@<TRIPOS>ATOM
      1 C1          2.9319    4.4875    3.2203 C.3       1 <0>        -0.1540
      2 C2          2.6599    3.0055    2.9545 C.3       1 <0>        -0.1299
      3 C3          3.3114    2.1625    4.0526 C.3       1 <0>        -0.1128
      4 C4          3.0395    0.6805    3.7869 C.3       1 <0>        -0.1141
      5 C5          3.6909   -0.1625    4.8850 C.3       1 <0>        -0.6114
      6 S1          3.3685   -1.9196    4.5700 S.o2      1 <0>         2.4104
      7 O1          1.9715   -2.1492    4.6921 O.2       1 <0>        -0.9363
      8 O2          4.0268   -2.2885    3.3659 O.2       1 <0>        -0.9364
      9 C6          4.2075   -2.7357    5.9558 C.3       1 <0>        -0.6117
     10 C7          4.0294   -4.2508    5.8389 C.3       1 <0>        -0.1135
     11 C8          4.7370   -4.9392    7.0078 C.3       1 <0>        -0.1122
     12 C9          4.5589   -6.4543    6.8909 C.3       1 <0>        -0.1247
     13 C10         5.2665   -7.1427    8.0598 C.3       1 <0>        -0.1201
     14 C11         5.0884   -8.6578    7.9429 C.3       1 <0>        -0.1204
     15 C12         5.7960   -9.3462    9.1118 C.3       1 <0>        -0.1183
     16 C13         5.6179  -10.8613    8.9949 C.3       1 <0>        -0.1162
     17 C14         6.3255  -11.5496   10.1638 C.3       1 <0>        -0.1347
     18 C15         6.1474  -13.0647   10.0469 C.3       1 <0>         0.1064
     19 N1          6.9202  -13.7299   11.0988 N.pl3     1 <0>        -0.4735
     20 C16         6.4261  -14.1010   12.3327 C.ar      1 <0>         0.1004
     21 C17         5.1756  -13.9850   12.9300 C.ar      1 <0>        -0.1130
     22 C18         4.9750  -14.4601   14.2071 C.ar      1 <0>        -0.1190
     23 C19         6.0152  -15.0597   14.9129 C.ar      1 <0>         0.0751
     24 C20         7.2639  -15.1853   14.3387 C.ar      1 <0>        -0.0939
     25 C21         7.4797  -14.7063   13.0427 C.ar      1 <0>        -0.0885
     26 C22         8.6424  -14.6764   12.1568 C.2       1 <0>        -0.1490
     27 C23         8.2459  -14.0838   11.0030 C.2       1 <0>         0.1180
     28 C24         9.1075  -13.8509    9.8241 C.ar      1 <0>        -0.0378
     29 C25         8.7217  -14.3279    8.5703 C.ar      1 <0>        -0.0884
     30 C26         9.5277  -14.1089    7.4736 C.ar      1 <0>        -0.1419
     31 C27        10.7220  -13.4147    7.6150 C.ar      1 <0>         0.1147
     32 C28        11.1095  -12.9390    8.8608 C.ar      1 <0>        -0.1416
     33 C29        10.3060  -13.1486    9.9611 C.ar      1 <0>        -0.0767
     34 O3         11.5138  -13.2008    6.5318 O.3       1 <0>        -0.4983
     35 C30        10.0184  -15.2081   12.4650 C.3       1 <0>        -0.0816
     36 O4          5.7998  -15.5228   16.1732 O.3       1 <0>        -0.4978
     37 H1          4.0074    4.6645    3.2243 H         1 <0>         0.0542
     38 H2          2.4677    5.0880    2.4379 H         1 <0>         0.0559
     39 H3          2.5142    4.7657    4.1879 H         1 <0>         0.0542
     40 H4          1.5844    2.8285    2.9505 H         1 <0>         0.0646
     41 H5          3.0776    2.7272    1.9869 H         1 <0>         0.0646
     42 H6          4.3869    2.3395    4.0567 H         1 <0>         0.0666
     43 H7          2.8938    2.4407    5.0202 H         1 <0>         0.0666
     44 H8          1.9639    0.5035    3.7829 H         1 <0>         0.0810
     45 H9          3.4571    0.4023    2.8193 H         1 <0>         0.0810
     46 H10         4.7665    0.0146    4.8891 H         1 <0>         0.1325
     47 H11         3.2733    0.1158    5.8526 H         1 <0>         0.1325
     48 H12         5.2696   -2.4919    5.9320 H         1 <0>         0.1325
     49 H13         3.7764   -2.3906    6.8956 H         1 <0>         0.1325
     50 H14         2.9673   -4.4947    5.8627 H         1 <0>         0.0808
     51 H15         4.4604   -4.5959    4.8991 H         1 <0>         0.0808
     52 H16         5.7991   -4.6953    6.9840 H         1 <0>         0.0664
     53 H17         4.3059   -4.5941    7.9476 H         1 <0>         0.0666
     54 H18         3.4968   -6.6982    6.9147 H         1 <0>         0.0650
     55 H19         4.9899   -6.7994    5.9511 H         1 <0>         0.0647
     56 H20         6.3286   -6.8988    8.0360 H         1 <0>         0.0615
     57 H21         4.8354   -6.7976    8.9996 H         1 <0>         0.0618
     58 H22         4.0263   -8.9016    7.9667 H         1 <0>         0.0623
     59 H23         5.5194   -9.0029    7.0031 H         1 <0>         0.0618
     60 H24         6.8581   -9.1023    9.0880 H         1 <0>         0.0614
     61 H25         5.3649   -9.0011   10.0516 H         1 <0>         0.0621
     62 H26         4.5558  -11.1051    9.0187 H         1 <0>         0.0650
     63 H27         6.0489  -11.2063    8.0552 H         1 <0>         0.0644
     64 H28         7.3876  -11.3058   10.1400 H         1 <0>         0.0694
     65 H29         5.8944  -11.2046   11.1036 H         1 <0>         0.0690
     66 H30         5.0925  -13.3161   10.1570 H         1 <0>         0.0880
     67 H31         6.5003  -13.3978    9.0709 H         1 <0>         0.0888
     68 H32         4.3614  -13.5219   12.3923 H         1 <0>         0.1228
     69 H33         4.0017  -14.3664   14.6658 H         1 <0>         0.1315
     70 H34         8.0698  -15.6501   14.8872 H         1 <0>         0.1286
     71 H35         7.7931  -14.8682    8.4596 H         1 <0>         0.1262
     72 H36         9.2301  -14.4780    6.5033 H         1 <0>         0.1328
     73 H37        12.0393  -12.3998    8.9668 H         1 <0>         0.1342
     74 H38        10.6055  -12.7738   10.9287 H         1 <0>         0.1328
     75 H39        11.3204  -12.3796    6.0593 H         1 <0>         0.3933
     76 H40        10.0823  -16.2515   12.1563 H         1 <0>         0.0649
     77 H41        10.7632  -14.6232   11.9252 H         1 <0>         0.0649
     78 H42        10.2050  -15.1341   13.5364 H         1 <0>         0.0658
     79 H43         5.5068  -16.4437   16.2091 H         1 <0>         0.3865
@<TRIPOS>BOND
     1    1    2 1
     2    1   37 1
     3    1   38 1
     4    1   39 1
     5    2    3 1
     6    2   40 1
     7    2   41 1
     8    3    4 1
     9    3   42 1
    10    3   43 1
    11    4    5 1
    12    4   44 1
    13    4   45 1
    14    5    6 1
    15    5   46 1
    16    5   47 1
    17    6    7 2
    18    6    8 2
    19    6    9 1
    20    9   10 1
    21    9   48 1
    22    9   49 1
    23   10   11 1
    24   10   50 1
    25   10   51 1
    26   11   12 1
    27   11   52 1
    28   11   53 1
    29   12   13 1
    30   12   54 1
    31   12   55 1
    32   13   14 1
    33   13   56 1
    34   13   57 1
    35   14   15 1
    36   14   58 1
    37   14   59 1
    38   15   16 1
    39   15   60 1
    40   15   61 1
    41   16   17 1
    42   16   62 1
    43   16   63 1
    44   17   18 1
    45   17   64 1
    46   17   65 1
    47   18   19 1
    48   18   66 1
    49   18   67 1
    50   19   27 1
    51   19   20 1
    52   20   25 ar
    53   20   21 ar
    54   21   22 ar
    55   21   68 1
    56   22   23 ar
    57   22   69 1
    58   23   24 ar
    59   23   36 1
    60   24   25 ar
    61   24   70 1
    62   25   26 1
    63   26   27 2
    64   26   35 1
    65   27   28 1
    66   28   33 ar
    67   28   29 ar
    68   29   30 ar
    69   29   71 1
    70   30   31 ar
    71   30   72 1
    72   31   32 ar
    73   31   34 1
    74   32   33 ar
    75   32   73 1
    76   33   74 1
    77   34   75 1
    78   35   76 1
    79   35   77 1
    80   35   78 1
    81   36   79 1
@<TRIPOS>MOLECULE
CHEMBL28211
   64    68     0     0     0
SMALL
USER_CHARGES

@<TRIPOS>ATOM
      1 C1         -0.0173    1.4248    0.0099 C.3       1 <0>         0.0260
      2 O1          0.0021   -0.0041    0.0020 O.3       1 <0>        -0.3142
      3 C2         -1.1999   -0.6373    0.0101 C.ar      1 <0>         0.1395
      4 C3         -2.3734    0.1059    0.0195 C.ar      1 <0>        -0.2128
      5 C4         -3.5955   -0.5329    0.0369 C.ar      1 <0>        -0.0639
      6 C5         -3.6492   -1.9248    0.0505 C.ar      1 <0>        -0.0842
      7 C6         -2.4683   -2.6701    0.0193 C.ar      1 <0>        -0.0288
      8 C7         -1.2507   -2.0253    0.0031 C.ar      1 <0>        -0.1481
      9 C8         -2.5352   -4.1737   -0.0275 C.3       1 <0>        -0.0817
     10 C9         -3.7209   -4.6753    0.7926 C.3       1 <0>        -0.0782
     11 C10        -4.9804   -3.9491    0.4054 C.2       1 <0>        -0.0587
     12 C11        -4.9467   -2.6346    0.0773 C.2       1 <0>        -0.0375
     13 C12        -6.1972   -1.9155   -0.2507 C.ar      1 <0>        -0.0472
     14 C13        -6.9345   -2.2736   -1.3806 C.ar      1 <0>        -0.0556
     15 C14        -8.0992   -1.6012   -1.6830 C.ar      1 <0>        -0.1358
     16 C15        -8.5392   -0.5685   -0.8653 C.ar      1 <0>         0.1115
     17 C16        -7.8084   -0.2093    0.2597 C.ar      1 <0>        -0.1997
     18 C17        -6.6458   -0.8808    0.5719 C.ar      1 <0>        -0.0716
     19 O2         -9.6874    0.0922   -1.1668 O.3       1 <0>        -0.3285
     20 C18       -10.0820    1.1437   -0.2833 C.3       1 <0>         0.0274
     21 C19       -11.3880    1.7655   -0.7817 C.3       1 <0>         0.0037
     22 N1        -12.4650    0.7693   -0.7058 N.4       1 <0>        -0.3956
     23 C20       -12.7873    0.4707    0.7131 C.3       1 <0>        -0.0104
     24 C21       -14.2259   -0.0996    0.6374 C.3       1 <0>        -0.1446
     25 C22       -14.8812    0.7608   -0.4672 C.3       1 <0>        -0.1449
     26 C23       -13.7069    1.3149   -1.2951 C.3       1 <0>        -0.0088
     27 C24        -6.2604   -4.6726    0.3826 C.ar      1 <0>        -0.0449
     28 C25        -7.2826   -4.3213    1.2707 C.ar      1 <0>        -0.1002
     29 C26        -8.4798   -5.0046    1.2430 C.ar      1 <0>        -0.1203
     30 C27        -8.6715   -6.0360    0.3402 C.ar      1 <0>        -0.1184
     31 C28        -7.6649   -6.3901   -0.5414 C.ar      1 <0>        -0.1159
     32 C29        -6.4643   -5.7122   -0.5310 C.ar      1 <0>        -0.1062
     33 H1          1.0053    1.8021    0.0021 H         1 <0>         0.1039
     34 H2         -0.5445    1.7859   -0.8732 H         1 <0>         0.0565
     35 H3         -0.5275    1.7763    0.9067 H         1 <0>         0.0567
     36 H4         -2.3287    1.1850    0.0135 H         1 <0>         0.1299
     37 H5         -4.5083    0.0443    0.0403 H         1 <0>         0.1248
     38 H6         -0.3359   -2.5991   -0.0111 H         1 <0>         0.1359
     39 H7         -2.6486   -4.4981   -1.0619 H         1 <0>         0.0843
     40 H8         -1.6132   -4.5889    0.3796 H         1 <0>         0.0876
     41 H9         -3.8533   -5.7428    0.6165 H         1 <0>         0.0842
     42 H10        -3.5214   -4.5088    1.8512 H         1 <0>         0.0837
     43 H11        -6.5928   -3.0763   -2.0173 H         1 <0>         0.1329
     44 H12        -8.6700   -1.8775   -2.5572 H         1 <0>         0.1321
     45 H13        -8.1538    0.5943    0.8933 H         1 <0>         0.1270
     46 H14        -6.0806   -0.6041    1.4496 H         1 <0>         0.1309
     47 H15       -10.2308    0.7400    0.7183 H         1 <0>         0.0848
     48 H16        -9.3038    1.9064   -0.2557 H         1 <0>         0.1076
     49 H17       -11.6424    2.6237   -0.1598 H         1 <0>         0.1481
     50 H18       -11.2650    2.0894   -1.8152 H         1 <0>         0.1411
     51 H19       -12.0993   -0.2729    1.1156 H         1 <0>         0.1332
     52 H20       -12.7653    1.3809    1.3124 H         1 <0>         0.1347
     53 H21       -14.2095   -1.1506    0.3488 H         1 <0>         0.0983
     54 H22       -14.7437    0.0325    1.5874 H         1 <0>         0.1173
     55 H23       -15.5278    0.1453   -1.0925 H         1 <0>         0.1056
     56 H24       -15.4496    1.5779   -0.0229 H         1 <0>         0.1044
     57 H25       -13.6961    2.4036   -1.2419 H         1 <0>         0.1313
     58 H26       -13.7988    0.9921   -2.3321 H         1 <0>         0.1329
     59 H27        -7.1343   -3.5172    1.9762 H         1 <0>         0.1175
     60 H28        -9.2700   -4.7346    1.9279 H         1 <0>         0.1183
     61 H29        -9.6114   -6.5677    0.3237 H         1 <0>         0.1205
     62 H30        -7.8220   -7.1965   -1.2424 H         1 <0>         0.1245
     63 H31        -5.6817   -5.9862   -1.2230 H         1 <0>         0.1244
     64 H32       -12.1932   -0.0749   -1.1869 H         1 <0>         0.4338
@<TRIPOS>BOND
     1    1    2 1
     2    1   33 1
     3    1   34 1
     4    1   35 1
     5    2    3 1
     6    3    8 ar
     7    3    4 ar
     8    4    5 ar
     9    4   36 1
    10    5    6 ar
    11    5   37 1
    12    6   12 1
    13    6    7 ar
    14    7    8 ar
    15    7    9 1
    16    8   38 1
    17    9   10 1
    18    9   39 1
    19    9   40 1
    20   10   11 1
    21   10   41 1
    22   10   42 1
    23   11   12 2
    24   11   27 1
    25   12   13 1
    26   13   18 ar
    27   13   14 ar
    28   14   15 ar
    29   14   43 1
    30   15   16 ar
    31   15   44 1
    32   16   17 ar
    33   16   19 1
    34   17   18 ar
    35   17   45 1
    36   18   46 1
    37   19   20 1
    38   20   21 1
    39   20   47 1
    40   20   48 1
    41   21   22 1
    42   21   49 1
    43   21   50 1
    44   22   26 1
    45   22   23 1
    46   22   64 1
    47   23   24 1
    48   23   51 1
    49   23   52 1
    50   24   25 1
    51   24   53 1
    52   24   54 1
    53   25   26 1
    54   25   55 1
    55   25   56 1
    56   26   57 1
    57   26   58 1
    58   27   32 ar
    59   27   28 ar
    60   28   29 ar
    61   28   59 1
    62   29   30 ar
    63   29   60 1
    64   30   31 ar
    65   30   61 1
    66   31   32 ar
    67   31   62 1
    68   32   63 1
@<TRIPOS>MOLECULE
CHEMBL185383
   62    66     0     0     0
SMALL
USER_CHARGES

@<TRIPOS>ATOM
      1 C1          1.0223   -0.1775   -0.6114 C.ar      1 <0>        -0.0896
      2 C2          2.1335    0.6417   -0.6633 C.ar      1 <0>        -0.1412
      3 C3          2.0485    1.9529   -0.2182 C.ar      1 <0>         0.1134
      4 C4          0.8473    2.4381    0.2780 C.ar      1 <0>        -0.1433
      5 C5         -0.2610    1.6149    0.3278 C.ar      1 <0>        -0.0796
      6 C6         -0.1738    0.3085   -0.1164 C.ar      1 <0>        -0.0870
      7 C7         -1.3845   -0.5872   -0.0613 C.3       1 <0>        -0.0616
      8 H1         -2.2836    0.0117    0.0833 H         1 <0>         0.1391
      9 C8         -1.2372   -1.5986    1.0877 C.3       1 <0>         0.1559
     10 H2         -2.0526   -2.3207    1.0446 H         1 <0>         0.0930
     11 O1          0.0035   -2.2750    0.9537 O.3       1 <0>        -0.3033
     12 C9          0.3113   -2.9970   -0.1492 C.ar      1 <0>         0.1264
     13 C10         1.2666   -4.0020   -0.0161 C.ar      1 <0>        -0.1163
     14 C11         1.6399   -4.7659   -1.1025 C.ar      1 <0>        -0.1071
     15 C12         1.0661   -4.5406   -2.3452 C.ar      1 <0>         0.0921
     16 C13         0.1103   -3.5479   -2.4884 C.ar      1 <0>        -0.0900
     17 C14        -0.2709   -2.7834   -1.3936 C.ar      1 <0>        -0.1473
     18 S1         -1.5182   -1.5464   -1.6029 S.3       1 <0>        -0.0924
     19 O2          1.4400   -5.2894   -3.4168 O.3       1 <0>        -0.4926
     20 C15        -1.2770   -0.8717    2.4072 C.ar      1 <0>        -0.1281
     21 C16        -0.1477   -0.2236    2.8724 C.ar      1 <0>        -0.0359
     22 C17        -0.1814    0.4431    4.0819 C.ar      1 <0>        -0.1526
     23 C18        -1.3498    0.4623    4.8297 C.ar      1 <0>         0.1455
     24 C19        -2.4817   -0.1884    4.3605 C.ar      1 <0>        -0.2132
     25 C20        -2.4443   -0.8493    3.1479 C.ar      1 <0>        -0.0585
     26 O3         -1.3854    1.1171    6.0200 O.3       1 <0>        -0.2954
     27 C21        -2.6220    1.0951    6.7358 C.3       1 <0>         0.0612
     28 C22        -2.4698    1.8785    8.0411 C.3       1 <0>         0.0597
     29 N1         -2.1866    3.2874    7.7364 N.3       1 <0>        -0.5524
     30 C23        -1.5390    3.9499    8.8709 C.3       1 <0>         0.0656
     31 C24        -0.8677    5.2457    8.4034 C.3       1 <0>        -0.5957
     32 S2         -2.1510    6.3622    7.7593 S.o2      1 <0>         2.4095
     33 O4         -1.5189    7.4085    7.0348 O.2       1 <0>        -0.9389
     34 O5         -3.0392    6.6902    8.8189 O.2       1 <0>        -0.9383
     35 C25        -3.0208    5.2842    6.5806 C.3       1 <0>        -0.5964
     36 C26        -3.3982    3.9832    7.2969 C.3       1 <0>         0.0604
     37 O6          3.1403    2.7606   -0.2678 O.3       1 <0>        -0.4990
     38 H3          1.0867   -1.1970   -0.9619 H         1 <0>         0.1303
     39 H4          3.0676    0.2615   -1.0497 H         1 <0>         0.1290
     40 H5          0.7787    3.4584    0.6254 H         1 <0>         0.1310
     41 H6         -1.1964    1.9922    0.7140 H         1 <0>         0.1260
     42 H7          1.7199   -4.1846    0.9471 H         1 <0>         0.1412
     43 H8          2.3818   -5.5420   -0.9851 H         1 <0>         0.1407
     44 H9         -0.3391   -3.3681   -3.4538 H         1 <0>         0.1385
     45 H10         0.9131   -6.0909   -3.5396 H         1 <0>         0.3918
     46 H11         0.7616   -0.2388    2.2899 H         1 <0>         0.1316
     47 H12         0.7011    0.9486    4.4452 H         1 <0>         0.1326
     48 H13        -3.3924   -0.1749    4.9408 H         1 <0>         0.1299
     49 H14        -3.3264   -1.3523    2.7801 H         1 <0>         0.1273
     50 H15        -3.4025    1.5515    6.1270 H         1 <0>         0.0652
     51 H16        -2.8933    0.0636    6.9607 H         1 <0>         0.0712
     52 H17        -3.3932    1.8097    8.6161 H         1 <0>         0.0702
     53 H18        -1.6479    1.4602    8.6222 H         1 <0>         0.0950
     54 H19        -2.2865    4.1825    9.6293 H         1 <0>         0.0610
     55 H20        -0.7870    3.2858    9.2970 H         1 <0>         0.1020
     56 H21        -0.3593    5.7184    9.2437 H         1 <0>         0.1401
     57 H22        -0.1483    5.0218    7.6157 H         1 <0>         0.1441
     58 H23        -3.9234    5.7822    6.2264 H         1 <0>         0.1393
     59 H24        -2.3673    5.0615    5.7371 H         1 <0>         0.1433
     60 H25        -3.9562    3.3425    6.6140 H         1 <0>         0.0979
     61 H26        -4.0180    4.2135    8.1634 H         1 <0>         0.0622
     62 H27         3.2265    3.2551   -1.0943 H         1 <0>         0.3924
@<TRIPOS>BOND
     1    1    6 ar
     2    1    2 ar
     3    1   38 1
     4    2    3 ar
     5    2   39 1
     6    3    4 ar
     7    3   37 1
     8    4    5 ar
     9    4   40 1
    10    5    6 ar
    11    5   41 1
    12    6    7 1
    13    7    8 1
    14    7   18 1
    15    7    9 1
    16    9   10 1
    17    9   11 1
    18    9   20 1
    19   11   12 1
    20   12   17 ar
    21   12   13 ar
    22   13   14 ar
    23   13   42 1
    24   14   15 ar
    25   14   43 1
    26   15   16 ar
    27   15   19 1
    28   16   17 ar
    29   16   44 1
    30   17   18 1
    31   19   45 1
    32   20   25 ar
    33   20   21 ar
    34   21   22 ar
    35   21   46 1
    36   22   23 ar
    37   22   47 1
    38   23   24 ar
    39   23   26 1
    40   24   25 ar
    41   24   48 1
    42   25   49 1
    43   26   27 1
    44   27   28 1
    45   27   50 1
    46   27   51 1
    47   28   29 1
    48   28   52 1
    49   28   53 1
    50   29   36 1
    51   29   30 1
    52   30   31 1
    53   30   54 1
    54   30   55 1
    55   31   32 1
    56   31   56 1
    57   31   57 1
    58   32   33 2
    59   32   34 2
    60   32   35 1
    61   35   36 1
    62   35   58 1
    63   35   59 1
    64   36   60 1
    65   36   61 1
    66   37   62 1
@<TRIPOS>MOLECULE
CHEMBL11389
   57    59     0     0     0
SMALL
USER_CHARGES

@<TRIPOS>ATOM
      1 C1          0.0752    1.2598   -0.2445 C.3       1 <0>        -0.1462
      2 C2          0.0183   -0.2553   -0.0388 C.3       1 <0>        -0.0895
      3 C3          0.7399   -0.6168    1.2339 C.2       1 <0>        -0.0733
      4 C4          0.0543   -0.7444    2.3814 C.2       1 <0>        -0.0614
      5 C5         -1.4476   -0.6205    2.3795 C.3       1 <0>        -0.0442
      6 C6         -2.0646   -1.9913    2.2727 C.ar      1 <0>        -0.0719
      7 C7         -2.4469   -2.4829    1.0386 C.ar      1 <0>        -0.1177
      8 C8         -3.0128   -3.7403    0.9406 C.ar      1 <0>        -0.1191
      9 C9         -3.1960   -4.5062    2.0766 C.ar      1 <0>        -0.1239
     10 C10        -2.8129   -4.0150    3.3106 C.ar      1 <0>        -0.1177
     11 C11        -2.2430   -2.7593    3.4081 C.ar      1 <0>        -0.1081
     12 C12         0.7704   -1.0054    3.6423 C.ar      1 <0>        -0.0765
     13 C13         1.4719   -2.2020    3.8154 C.ar      1 <0>        -0.0558
     14 C14         2.1400   -2.4417    4.9965 C.ar      1 <0>        -0.1508
     15 C15         2.1169   -1.4967    6.0142 C.ar      1 <0>         0.1394
     16 C16         1.4212   -0.3062    5.8469 C.ar      1 <0>        -0.1908
     17 C17         0.7552   -0.0548    4.6670 C.ar      1 <0>        -0.0732
     18 O1          2.7764   -1.7378    7.1772 O.3       1 <0>        -0.3098
     19 C18         2.7115   -0.7239    8.1820 C.3       1 <0>         0.2175
     20 N1          1.4318   -0.8236    8.8964 N.3       1 <0>        -0.5680
     21 C19         1.4822   -1.8736    9.9226 C.3       1 <0>         0.0269
     22 C20         1.0547    0.4689    9.4839 C.3       1 <0>         0.0271
     23 C21         2.1980   -0.8304    1.2191 C.ar      1 <0>        -0.0358
     24 C22         3.0407    0.0283    1.9300 C.ar      1 <0>        -0.0981
     25 C23         4.4042   -0.1778    1.9114 C.ar      1 <0>        -0.1182
     26 C24         4.9384   -1.2317    1.1912 C.ar      1 <0>        -0.1212
     27 C25         4.1103   -2.0859    0.4844 C.ar      1 <0>        -0.1188
     28 C26         2.7443   -1.8960    0.4987 C.ar      1 <0>        -0.1110
     29 H1          1.1153    1.5783   -0.3135 H         1 <0>         0.0560
     30 H2         -0.4467    1.5213   -1.1650 H         1 <0>         0.0580
     31 H3         -0.4025    1.7591    0.5984 H         1 <0>         0.0557
     32 H4         -1.0218   -0.5738    0.0302 H         1 <0>         0.0774
     33 H5          0.4960   -0.7546   -0.8817 H         1 <0>         0.0706
     34 H6         -1.7742   -0.1462    3.3050 H         1 <0>         0.0807
     35 H7         -1.7611   -0.0138    1.5300 H         1 <0>         0.0856
     36 H8         -2.3038   -1.8844    0.1510 H         1 <0>         0.1206
     37 H9         -3.3121   -4.1240   -0.0235 H         1 <0>         0.1203
     38 H10        -3.6388   -5.4883    2.0001 H         1 <0>         0.1195
     39 H11        -2.9563   -4.6133    4.1982 H         1 <0>         0.1200
     40 H12        -1.9402   -2.3770    4.3717 H         1 <0>         0.1196
     41 H13         1.4899   -2.9377    3.0249 H         1 <0>         0.1218
     42 H14         2.6823   -3.3659    5.1311 H         1 <0>         0.1253
     43 H15         1.4060    0.4256    6.6410 H         1 <0>         0.1260
     44 H16         0.2185    0.8732    4.5360 H         1 <0>         0.1210
     45 H17         3.5323   -0.8576    8.8866 H         1 <0>         0.0885
     46 H18         2.7907    0.2573    7.7138 H         1 <0>         0.0784
     47 H19         2.2670   -1.6409   10.6423 H         1 <0>         0.0293
     48 H20         0.5222   -1.9261   10.4361 H         1 <0>         0.0709
     49 H21         1.6947   -2.8329    9.4507 H         1 <0>         0.0732
     50 H22         0.9564    1.2126    8.6931 H         1 <0>         0.0696
     51 H23         0.1037    0.3667   10.0067 H         1 <0>         0.0761
     52 H24         1.8240    0.7864   10.1877 H         1 <0>         0.0311
     53 H25         2.6252    0.8515    2.4922 H         1 <0>         0.1175
     54 H26         5.0568    0.4853    2.4600 H         1 <0>         0.1185
     55 H27         6.0070   -1.3882    1.1803 H         1 <0>         0.1186
     56 H28         4.5342   -2.9062   -0.0758 H         1 <0>         0.1204
     57 H29         2.0987   -2.5665   -0.0491 H         1 <0>         0.1196
@<TRIPOS>BOND
     1    1    2 1
     2    1   29 1
     3    1   30 1
     4    1   31 1
     5    2    3 1
     6    2   32 1
     7    2   33 1
     8    3    4 2
     9    3   23 1
    10    4    5 1
    11    4   12 1
    12    5    6 1
    13    5   34 1
    14    5   35 1
    15    6   11 ar
    16    6    7 ar
    17    7    8 ar
    18    7   36 1
    19    8    9 ar
    20    8   37 1
    21    9   10 ar
    22    9   38 1
    23   10   11 ar
    24   10   39 1
    25   11   40 1
    26   12   17 ar
    27   12   13 ar
    28   13   14 ar
    29   13   41 1
    30   14   15 ar
    31   14   42 1
    32   15   16 ar
    33   15   18 1
    34   16   17 ar
    35   16   43 1
    36   17   44 1
    37   18   19 1
    38   19   20 1
    39   19   45 1
    40   19   46 1
    41   20   21 1
    42   20   22 1
    43   21   47 1
    44   21   48 1
    45   21   49 1
    46   22   50 1
    47   22   51 1
    48   22   52 1
    49   23   28 ar
    50   23   24 ar
    51   24   25 ar
    52   24   53 1
    53   25   26 ar
    54   25   54 1
    55   26   27 ar
    56   26   55 1
    57   27   28 ar
    58   27   56 1
    59   28   57 1
@<TRIPOS>MOLECULE
CHEMBL11389__1
   58    60     0     0     0
SMALL
USER_CHARGES

@<TRIPOS>ATOM
      1 C1         -2.1364    1.0202    0.7048 C.3       1 <0>        -0.1467
      2 C2         -1.8280   -0.4765    0.7794 C.3       1 <0>        -0.0955
      3 C3         -0.7720   -0.7202    1.8266 C.2       1 <0>        -0.0478
      4 C4         -1.1310   -1.0382    3.0808 C.2       1 <0>        -0.0889
      5 C5         -2.5855   -1.2390    3.4203 C.3       1 <0>        -0.0412
      6 C6         -2.9177   -2.7076    3.3582 C.ar      1 <0>        -0.0787
      7 C7         -3.4638   -3.2447    2.2074 C.ar      1 <0>        -0.1155
      8 C8         -3.7685   -4.5918    2.1505 C.ar      1 <0>        -0.1145
      9 C9         -3.5268   -5.4019    3.2442 C.ar      1 <0>        -0.1193
     10 C10        -2.9799   -4.8650    4.3946 C.ar      1 <0>        -0.1176
     11 C11        -2.6712   -3.5187    4.4501 C.ar      1 <0>        -0.1135
     12 C12        -0.1029   -1.1909    4.1251 C.ar      1 <0>        -0.0341
     13 C13         0.8435   -2.2155    4.0327 C.ar      1 <0>        -0.0483
     14 C14         1.8030   -2.3543    5.0119 C.ar      1 <0>        -0.1180
     15 C15         1.8306   -1.4785    6.0896 C.ar      1 <0>         0.0753
     16 C16         0.8923   -0.4588    6.1857 C.ar      1 <0>        -0.2182
     17 C17        -0.0673   -0.3081    5.2083 C.ar      1 <0>        -0.0668
     18 O1          2.7780   -1.6198    7.0529 O.3       1 <0>        -0.2881
     19 C18         2.7201   -0.7150    8.1575 C.3       1 <0>         0.1632
     20 N1          3.3009    0.5757    7.7641 N.4       1 <0>        -0.4164
     21 C19         3.1290    1.5432    8.8560 C.3       1 <0>        -0.0471
     22 C20         4.7326    0.4033    7.4836 C.3       1 <0>        -0.0468
     23 C21         0.6547   -0.6094    1.4741 C.ar      1 <0>        -0.0468
     24 C22         1.4464    0.3848    2.0553 C.ar      1 <0>        -0.1048
     25 C23         2.7807    0.4824    1.7205 C.ar      1 <0>        -0.1217
     26 C24         3.3360   -0.4011    0.8117 C.ar      1 <0>        -0.1171
     27 C25         2.5582   -1.3879    0.2318 C.ar      1 <0>        -0.1137
     28 C26         1.2238   -1.5016    0.5615 C.ar      1 <0>        -0.1057
     29 H1         -1.2302    1.5652    0.4406 H         1 <0>         0.0566
     30 H2         -2.9002    1.1965   -0.0526 H         1 <0>         0.0634
     31 H3         -2.4987    1.3653    1.6732 H         1 <0>         0.0557
     32 H4         -2.7342   -1.0215    1.0436 H         1 <0>         0.0813
     33 H5         -1.4658   -0.8215   -0.1890 H         1 <0>         0.0759
     34 H6         -2.7789   -0.8649    4.4256 H         1 <0>         0.0795
     35 H7         -3.2037   -0.6961    2.7053 H         1 <0>         0.0905
     36 H8         -3.6526   -2.6117    1.3530 H         1 <0>         0.1221
     37 H9         -4.1958   -5.0113    1.2517 H         1 <0>         0.1241
     38 H10        -3.7656   -6.4543    3.2000 H         1 <0>         0.1230
     39 H11        -2.7914   -5.4979    5.2492 H         1 <0>         0.1208
     40 H12        -2.2404   -3.1000    5.3476 H         1 <0>         0.1144
     41 H13         0.8224   -2.8974    3.1955 H         1 <0>         0.1367
     42 H14         2.5347   -3.1457    4.9414 H         1 <0>         0.1389
     43 H15         0.9177    0.2198    7.0255 H         1 <0>         0.1173
     44 H16        -0.7935    0.4879    5.2814 H         1 <0>         0.1354
     45 H17         1.6815   -0.5706    8.4548 H         1 <0>         0.1347
     46 H18         3.2837   -1.1270    8.9946 H         1 <0>         0.1735
     47 H19         3.6327    1.1754    9.7500 H         1 <0>         0.1283
     48 H20         3.5599    2.5009    8.5642 H         1 <0>         0.1311
     49 H21         2.0667    1.6711    9.0642 H         1 <0>         0.1246
     50 H22         5.1822    1.3748    7.2788 H         1 <0>         0.1255
     51 H23         5.2204   -0.0480    8.3476 H         1 <0>         0.1255
     52 H24         4.8574   -0.2450    6.6162 H         1 <0>         0.1258
     53 H25         1.0142    1.0752    2.7645 H         1 <0>         0.1158
     54 H26         3.3937    1.2504    2.1686 H         1 <0>         0.1178
     55 H27         4.3815   -0.3199    0.5534 H         1 <0>         0.1219
     56 H28         2.9983   -2.0737   -0.4770 H         1 <0>         0.1255
     57 H29         0.6192   -2.2754    0.1120 H         1 <0>         0.1240
     58 H30         2.8347    0.9161    6.9366 H         1 <0>         0.4248
@<TRIPOS>BOND
     1    1    2 1
     2    1   29 1
     3    1   30 1
     4    1   31 1
     5    2    3 1
     6    2   32 1
     7    2   33 1
     8    3    4 2
     9    3   23 1
    10    4    5 1
    11    4   12 1
    12    5    6 1
    13    5   34 1
    14    5   35 1
    15    6   11 ar
    16    6    7 ar
    17    7    8 ar
    18    7   36 1
    19    8    9 ar
    20    8   37 1
    21    9   10 ar
    22    9   38 1
    23   10   11 ar
    24   10   39 1
    25   11   40 1
    26   12   17 ar
    27   12   13 ar
    28   13   14 ar
    29   13   41 1
    30   14   15 ar
    31   14   42 1
    32   15   16 ar
    33   15   18 1
    34   16   17 ar
    35   16   43 1
    36   17   44 1
    37   18   19 1
    38   19   20 1
    39   19   45 1
    40   19   46 1
    41   20   21 1
    42   20   22 1
    43   20   58 1
    44   21   47 1
    45   21   48 1
    46   21   49 1
    47   22   50 1
    48   22   51 1
    49   22   52 1
    50   23   28 ar
    51   23   24 ar
    52   24   25 ar
    53   24   53 1
    54   25   26 ar
    55   25   54 1
    56   26   27 ar
    57   26   55 1
    58   27   28 ar
    59   27   56 1
    60   28   57 1
@<TRIPOS>MOLECULE
CHEMBL123025
   60    64     0     0     0
SMALL
USER_CHARGES

@<TRIPOS>ATOM
      1 C1         -4.4960   -2.1926    0.2623 C.ar      1 <0>        -0.0770
      2 C2         -5.2897   -2.8686   -0.6441 C.ar      1 <0>        -0.1399
      3 C3         -5.0885   -4.2233   -0.8653 C.ar      1 <0>         0.1211
      4 C4         -4.0903   -4.8957   -0.1753 C.ar      1 <0>        -0.1465
      5 C5         -3.2993   -4.2152    0.7300 C.ar      1 <0>        -0.0866
      6 C6         -3.5019   -2.8651    0.9487 C.ar      1 <0>        -0.0859
      7 C7         -2.6372   -2.1250    1.9366 C.3       1 <0>        -0.0353
      8 H1         -3.1394   -1.2101    2.2510 H         1 <0>         0.1248
      9 C8         -1.2924   -1.7794    1.2883 C.3       1 <0>        -0.0393
     10 H2         -1.4588   -1.3798    0.2880 H         1 <0>         0.1469
     11 S1         -0.4709   -0.5362    2.3122 S.3       1 <0>        -0.0688
     12 C9         -0.4082   -1.2205    3.9320 C.ar      1 <0>        -0.1164
     13 C10         0.4954   -0.6209    4.8187 C.ar      1 <0>        -0.0656
     14 C11         0.6261   -1.0599    6.1163 C.ar      1 <0>        -0.1245
     15 C12        -0.1535   -2.1174    6.5626 C.ar      1 <0>         0.1345
     16 C13        -1.0434   -2.7184    5.6957 C.ar      1 <0>        -0.1154
     17 C14        -1.1760   -2.2832    4.3705 C.ar      1 <0>        -0.0754
     18 S2         -2.3229   -3.1729    3.3759 S.3       1 <0>        -0.0674
     19 O1         -0.0414   -2.5584    7.8441 O.3       1 <0>        -0.4934
     20 C15        -0.4359   -3.0165    1.2050 C.ar      1 <0>        -0.0999
     21 C16        -0.5723   -3.8794    0.1331 C.ar      1 <0>        -0.0388
     22 C17         0.2111   -5.0145    0.0542 C.ar      1 <0>        -0.1997
     23 C18         1.1359   -5.2885    1.0512 C.ar      1 <0>         0.1496
     24 C19         1.2715   -4.4209    2.1259 C.ar      1 <0>        -0.1128
     25 C20         0.4887   -3.2837    2.1973 C.ar      1 <0>        -0.0408
     26 Br1         2.5304   -4.7905    3.4877 Br        1 <0>        -0.0261
     27 O2          1.9075   -6.4049    0.9759 O.3       1 <0>        -0.3158
     28 C21         1.7133   -7.2525   -0.1581 C.3       1 <0>         0.0248
     29 C22         2.6629   -8.4488   -0.0692 C.3       1 <0>         0.0039
     30 N1          2.3076   -9.2705    1.0954 N.4       1 <0>        -0.3969
     31 C23         0.9967   -9.9329    0.8742 C.3       1 <0>        -0.0107
     32 C24         1.0369  -11.1340    1.8521 C.3       1 <0>        -0.1447
     33 C25         2.5116  -11.5920    1.7767 C.3       1 <0>        -0.1447
     34 C26         3.2884  -10.3643    1.2662 C.3       1 <0>        -0.0086
     35 O3         -5.8683   -4.8907   -1.7561 O.3       1 <0>        -0.4970
     36 H3         -4.6493   -1.1370    0.4315 H         1 <0>         0.1343
     37 H4         -6.0664   -2.3430   -1.1798 H         1 <0>         0.1370
     38 H5         -3.9320   -5.9504   -0.3455 H         1 <0>         0.1300
     39 H6         -2.5221   -4.7382    1.2674 H         1 <0>         0.1331
     40 H7          1.1024    0.2042    4.4765 H         1 <0>         0.1393
     41 H8          1.3310   -0.5849    6.7826 H         1 <0>         0.1436
     42 H9         -1.6500   -3.5405    6.0459 H         1 <0>         0.1372
     43 H10        -0.6368   -2.1172    8.4654 H         1 <0>         0.3989
     44 H11        -1.2924   -3.6660   -0.6430 H         1 <0>         0.1385
     45 H12         0.1034   -5.6883   -0.7830 H         1 <0>         0.1383
     46 H13         0.5964   -2.6059    3.0312 H         1 <0>         0.1576
     47 H14         0.6827   -7.6070   -0.1745 H         1 <0>         0.0878
     48 H15         1.9193   -6.6920   -1.0701 H         1 <0>         0.1111
     49 H16         2.5785   -9.0478   -0.9759 H         1 <0>         0.1500
     50 H17         3.6875   -8.0923    0.0366 H         1 <0>         0.1426
     51 H18         0.1778   -9.2591    1.1259 H         1 <0>         0.1329
     52 H19         0.9093  -10.2783   -0.1560 H         1 <0>         0.1352
     53 H20         0.7828  -10.8166    2.8634 H         1 <0>         0.0986
     54 H21         0.3690  -11.9273    1.5164 H         1 <0>         0.1175
     55 H22         2.8688  -11.8816    2.7649 H         1 <0>         0.1058
     56 H23         2.6146  -12.4223    1.0780 H         1 <0>         0.1046
     57 H24         3.7588  -10.5938    0.3101 H         1 <0>         0.1317
     58 H25         4.0450  -10.0742    1.9951 H         1 <0>         0.1331
     59 H26        -5.5206   -4.8934   -2.6584 H         1 <0>         0.3950
     60 H27         2.2743   -8.7001    1.9271 H         1 <0>         0.4344
@<TRIPOS>BOND
     1    1    6 ar
     2    1    2 ar
     3    1   36 1
     4    2    3 ar
     5    2   37 1
     6    3    4 ar
     7    3   35 1
     8    4    5 ar
     9    4   38 1
    10    5    6 ar
    11    5   39 1
    12    6    7 1
    13    7    8 1
    14    7   18 1
    15    7    9 1
    16    9   10 1
    17    9   11 1
    18    9   20 1
    19   11   12 1
    20   12   17 ar
    21   12   13 ar
    22   13   14 ar
    23   13   40 1
    24   14   15 ar
    25   14   41 1
    26   15   16 ar
    27   15   19 1
    28   16   17 ar
    29   16   42 1
    30   17   18 1
    31   19   43 1
    32   20   25 ar
    33   20   21 ar
    34   21   22 ar
    35   21   44 1
    36   22   23 ar
    37   22   45 1
    38   23   24 ar
    39   23   27 1
    40   24   25 ar
    41   24   26 1
    42   25   46 1
    43   27   28 1
    44   28   29 1
    45   28   47 1
    46   28   48 1
    47   29   30 1
    48   29   49 1
    49   29   50 1
    50   30   34 1
    51   30   31 1
    52   30   60 1
    53   31   32 1
    54   31   51 1
    55   31   52 1
    56   32   33 1
    57   32   53 1
    58   32   54 1
    59   33   34 1
    60   33   55 1
    61   33   56 1
    62   34   57 1
    63   34   58 1
    64   35   59 1
@<TRIPOS>MOLECULE
CHEMBL381645
   62    66     0     0     0
SMALL
USER_CHARGES

@<TRIPOS>ATOM
      1 C1          0.0073    1.0890    0.2277 C.ar      1 <0>        -0.0845
      2 C2          1.1488    1.8593    0.1879 C.ar      1 <0>        -0.1421
      3 C3          2.3960    1.2534    0.1036 C.ar      1 <0>         0.1121
      4 C4          2.4997   -0.1312    0.0591 C.ar      1 <0>        -0.1455
      5 C5          1.3648   -0.9111    0.0987 C.ar      1 <0>        -0.0812
      6 C6          0.1059   -0.3061    0.1835 C.ar      1 <0>        -0.0443
      7 C7         -1.1087   -1.1333    0.2261 C.2       1 <0>        -0.0644
      8 C8         -1.5583   -1.9400   -0.7627 C.2       1 <0>        -0.0428
      9 C9         -2.8090   -2.6108   -0.3544 C.ar      1 <0>        -0.0741
     10 C10        -3.6350   -3.5206   -1.0217 C.ar      1 <0>        -0.0773
     11 C11        -4.7673   -4.0043   -0.4039 C.ar      1 <0>        -0.1442
     12 C12        -5.0940   -3.5918    0.8815 C.ar      1 <0>         0.1176
     13 C13        -4.2772   -2.6881    1.5498 C.ar      1 <0>        -0.1252
     14 C14        -3.1452   -2.2024    0.9376 C.ar      1 <0>        -0.0776
     15 C15        -2.0730   -1.2385    1.3842 C.3       1 <0>        -0.0544
     16 O1         -6.2126   -4.0718    1.4852 O.3       1 <0>        -0.4956
     17 C16        -0.8905   -2.1243   -2.0700 C.ar      1 <0>        -0.0486
     18 C17        -0.7839   -1.0530   -2.9585 C.ar      1 <0>        -0.0566
     19 C18        -0.1610   -1.2287   -4.1756 C.ar      1 <0>        -0.1372
     20 C19         0.3598   -2.4696   -4.5184 C.ar      1 <0>         0.1142
     21 C20         0.2553   -3.5380   -3.6374 C.ar      1 <0>        -0.2003
     22 C21        -0.3603   -3.3685   -2.4156 C.ar      1 <0>        -0.0643
     23 O2          0.9726   -2.6390   -5.7191 O.3       1 <0>        -0.3282
     24 C22         1.4856   -3.9411   -6.0077 C.3       1 <0>         0.0257
     25 C23         2.1351   -3.9379   -7.3930 C.3       1 <0>        -0.0009
     26 N1          3.2884   -3.0279   -7.3910 N.4       1 <0>        -0.3842
     27 C24         3.8154   -2.9054   -8.7555 C.3       1 <0>        -0.0069
     28 C25         4.9657   -1.8964   -8.7733 C.3       1 <0>        -0.1468
     29 C26         6.0766   -2.3804   -7.8369 C.3       1 <0>        -0.1387
     30 C27         5.4978   -2.5759   -6.4326 C.3       1 <0>        -0.1456
     31 C28         4.3278   -3.5597   -6.5015 C.3       1 <0>        -0.0129
     32 O3          3.5185    2.0178    0.0643 O.3       1 <0>        -0.5013
     33 H1         -0.9617    1.5609    0.2973 H         1 <0>         0.1309
     34 H2          1.0738    2.9361    0.2219 H         1 <0>         0.1333
     35 H3          3.4718   -0.5971   -0.0072 H         1 <0>         0.1289
     36 H4          1.4466   -1.9875    0.0636 H         1 <0>         0.1250
     37 H5         -3.3855   -3.8437   -2.0216 H         1 <0>         0.1240
     38 H6         -5.4037   -4.7069   -0.9214 H         1 <0>         0.1333
     39 H7         -4.5311   -2.3668    2.5491 H         1 <0>         0.1332
     40 H8         -1.5613   -1.6238    2.2662 H         1 <0>         0.1096
     41 H9         -2.5115   -0.2639    1.5985 H         1 <0>         0.1090
     42 H10        -6.0683   -4.8813    1.9941 H         1 <0>         0.3948
     43 H11        -1.1892   -0.0879   -2.6928 H         1 <0>         0.1343
     44 H12        -0.0781   -0.4003   -4.8635 H         1 <0>         0.1339
     45 H13         0.6609   -4.5017   -3.9078 H         1 <0>         0.1283
     46 H14        -0.4366   -4.1985   -1.7288 H         1 <0>         0.1310
     47 H15         2.2292   -4.2130   -5.2584 H         1 <0>         0.0860
     48 H16         0.6707   -4.6648   -5.9902 H         1 <0>         0.1091
     49 H17         2.4681   -4.9459   -7.6405 H         1 <0>         0.1487
     50 H18         1.4092   -3.6028   -8.1339 H         1 <0>         0.1425
     51 H19         4.1789   -3.8761   -9.0926 H         1 <0>         0.1290
     52 H20         3.0228   -2.5640   -9.4213 H         1 <0>         0.1309
     53 H21         5.3568   -1.8082   -9.7869 H         1 <0>         0.1130
     54 H22         4.6032   -0.9252   -8.4365 H         1 <0>         0.0881
     55 H23         6.4745   -3.3271   -8.2022 H         1 <0>         0.0819
     56 H24         6.8736   -1.6376   -7.8024 H         1 <0>         0.0947
     57 H25         6.2692   -2.9734   -5.7731 H         1 <0>         0.1121
     58 H26         5.1463   -1.6188   -6.0472 H         1 <0>         0.0882
     59 H27         3.9135   -3.7014   -5.5033 H         1 <0>         0.1271
     60 H28         4.6804   -4.5165   -6.8867 H         1 <0>         0.1300
     61 H29         3.8911    2.2146    0.9346 H         1 <0>         0.3955
     62 H30         2.9980   -2.1194   -7.0619 H         1 <0>         0.4297
@<TRIPOS>BOND
     1    1    6 ar
     2    1    2 ar
     3    1   33 1
     4    2    3 ar
     5    2   34 1
     6    3    4 ar
     7    3   32 1
     8    4    5 ar
     9    4   35 1
    10    5    6 ar
    11    5   36 1
    12    6    7 1
    13    7   15 1
    14    7    8 2
    15    8    9 1
    16    8   17 1
    17    9   14 ar
    18    9   10 ar
    19   10   11 ar
    20   10   37 1
    21   11   12 ar
    22   11   38 1
    23   12   13 ar
    24   12   16 1
    25   13   14 ar
    26   13   39 1
    27   14   15 1
    28   15   40 1
    29   15   41 1
    30   16   42 1
    31   17   22 ar
    32   17   18 ar
    33   18   19 ar
    34   18   43 1
    35   19   20 ar
    36   19   44 1
    37   20   21 ar
    38   20   23 1
    39   21   22 ar
    40   21   45 1
    41   22   46 1
    42   23   24 1
    43   24   25 1
    44   24   47 1
    45   24   48 1
    46   25   26 1
    47   25   49 1
    48   25   50 1
    49   26   31 1
    50   26   27 1
    51   26   62 1
    52   27   28 1
    53   27   51 1
    54   27   52 1
    55   28   29 1
    56   28   53 1
    57   28   54 1
    58   29   30 1
    59   29   55 1
    60   29   56 1
    61   30   31 1
    62   30   57 1
    63   30   58 1
    64   31   59 1
    65   31   60 1
    66   32   61 1
@<TRIPOS>MOLECULE
CHEMBL215409
   37    40     0     0     0
SMALL
USER_CHARGES

@<TRIPOS>ATOM
      1 C1          0.2966    1.5318   -0.5327 C.3       1 <0>        -0.1616
      2 C2          0.3000    0.0021   -0.5000 C.3       1 <0>        -0.1058
      3 C3         -1.0740   -0.5016   -0.0537 C.3       1 <0>        -0.0929
      4 C4         -2.1408   -0.0622   -1.0539 C.3       1 <0>        -0.1018
      5 C5         -1.7646   -0.6478   -2.4223 C.3       1 <0>        -0.1600
      6 C6         -1.5759   -2.1371   -2.3371 C.2       1 <0>         0.3979
      7 O1         -1.7020   -2.8063   -3.3422 O.2       1 <0>        -0.4332
      8 C7         -1.2548   -2.7809   -1.1177 C.2       1 <0>        -0.2824
      9 C8         -1.0841   -2.0164   -0.0170 C.2       1 <0>         0.1018
     10 C9         -0.9857   -2.4076    1.3889 C.ar      1 <0>        -0.0973
     11 C10        -0.7412   -3.6536    1.9881 C.ar      1 <0>        -0.0499
     12 C11        -0.7223   -3.7899    3.3443 C.ar      1 <0>        -0.1016
     13 C12        -0.9525   -2.6913    4.1711 C.ar      1 <0>         0.1435
     14 C13        -1.1888   -1.4232    3.6059 C.ar      1 <0>        -0.1324
     15 C14        -1.1856   -1.2723    2.1999 C.ar      1 <0>        -0.0633
     16 C15        -1.3425   -0.0748    1.3599 C.2       1 <0>         0.4227
     17 O2         -1.6331    1.0412    1.7368 O.2       1 <0>        -0.3956
     18 C16        -1.3871   -0.5245    4.6766 C.2       1 <0>         0.0849
     19 N1         -1.2777   -1.1807    5.7967 N.2       1 <0>        -0.2341
     20 N2         -1.0060   -2.5282    5.5309 N.pl3     1 <0>        -0.4934
     21 H1         -0.8782   -3.2250    6.1935 H         1 <0>         0.4492
     22 C17        -1.1083   -4.2791   -1.0491 C.3       1 <0>         0.5176
     23 F1         -2.2022   -4.8240   -0.3682 F         1 <0>        -0.1738
     24 F2         -1.0582   -4.8026   -2.3455 F         1 <0>        -0.1535
     25 F3          0.0716   -4.6017   -0.3701 F         1 <0>        -0.1726
     26 H2          1.2755    1.8906   -0.8506 H         1 <0>         0.0680
     27 H3         -0.4627    1.8785   -1.2336 H         1 <0>         0.0665
     28 H4          0.0745    1.9160    0.4629 H         1 <0>         0.0667
     29 H5          0.5221   -0.3821   -1.4955 H         1 <0>         0.0874
     30 H6          1.0594   -0.3446    0.2010 H         1 <0>         0.0782
     31 H7         -3.1153   -0.4404   -0.7452 H         1 <0>         0.0842
     32 H8         -2.1673    1.0260   -1.1122 H         1 <0>         0.1051
     33 H9         -2.5582   -0.4278   -3.1363 H         1 <0>         0.1133
     34 H10        -0.8377   -0.1885   -2.7657 H         1 <0>         0.1148
     35 H11        -0.5658   -4.5179    1.3646 H         1 <0>         0.1538
     36 H12        -0.5275   -4.7578    3.7822 H         1 <0>         0.1460
     37 H13        -1.5946    0.5312    4.5826 H         1 <0>         0.2037
@<TRIPOS>BOND
     1    1    2 1
     2    1   26 1
     3    1   27 1
     4    1   28 1
     5    2    3 1
     6    2   29 1
     7    2   30 1
     8    3    9 1
     9    3   16 1
    10    3    4 1
    11    4    5 1
    12    4   31 1
    13    4   32 1
    14    5    6 1
    15    5   33 1
    16    5   34 1
    17    6    7 2
    18    6    8 1
    19    8    9 2
    20    8   22 1
    21    9   10 1
    22   10   15 ar
    23   10   11 ar
    24   11   12 ar
    25   11   35 1
    26   12   13 ar
    27   12   36 1
    28   13   20 1
    29   13   14 ar
    30   14   15 ar
    31   14   18 1
    32   15   16 1
    33   16   17 2
    34   18   19 2
    35   18   37 1
    36   19   20 1
    37   20   21 1
    38   22   23 1
    39   22   24 1
    40   22   25 1
@<TRIPOS>MOLECULE
CHEMBL215409__1
   37    40     0     0     0
SMALL
USER_CHARGES

@<TRIPOS>ATOM
      1 C1          0.2914    1.5320   -0.5212 C.3       1 <0>        -0.1610
      2 C2          0.2951    0.0024   -0.4888 C.3       1 <0>        -0.1060
      3 C3         -1.0818   -0.5018   -0.0518 C.3       1 <0>        -0.0929
      4 C4         -2.1425   -0.0627   -1.0587 C.3       1 <0>        -0.1016
      5 C5         -1.7572   -0.6472   -2.4249 C.3       1 <0>        -0.1599
      6 C6         -1.5675   -2.1364   -2.3395 C.2       1 <0>         0.3976
      7 O1         -1.6854   -2.8049   -3.3460 O.2       1 <0>        -0.4327
      8 C7         -1.2546   -2.7809   -1.1174 C.2       1 <0>        -0.2800
      9 C8         -1.0923   -2.0163   -0.0154 C.2       1 <0>         0.0958
     10 C9         -1.0052   -2.4099    1.3918 C.ar      1 <0>        -0.0719
     11 C10        -0.7744   -3.6696    1.9831 C.ar      1 <0>        -0.0815
     12 C11        -0.7523   -3.8589    3.3210 C.ar      1 <0>        -0.0508
     13 C12        -0.9604   -2.7822    4.2099 C.ar      1 <0>         0.1101
     14 C13        -1.1924   -1.4394    3.6533 C.ar      1 <0>        -0.1819
     15 C14        -1.2002   -1.2759    2.1978 C.ar      1 <0>        -0.0577
     16 C15        -1.3589   -0.0785    1.3612 C.2       1 <0>         0.4210
     17 O2         -1.6562    1.0356    1.7391 O.2       1 <0>        -0.4022
     18 C16        -1.3598   -0.5918    4.7267 C.2       1 <0>         0.1106
     19 N1         -1.2470   -1.3201    5.8477 N.pl3     1 <0>        -0.4179
     20 N2         -1.0033   -2.6597    5.5238 N.2       1 <0>        -0.2837
     21 H1         -1.3231   -0.9701    6.7491 H         1 <0>         0.4514
     22 C17        -1.1062   -4.2790   -1.0485 C.3       1 <0>         0.5174
     23 F1         -2.1994   -4.8251   -0.3674 F         1 <0>        -0.1730
     24 F2         -1.0556   -4.8027   -2.3448 F         1 <0>        -0.1540
     25 F3          0.0740   -4.6000   -0.3694 F         1 <0>        -0.1709
     26 H2          1.2723    1.8912   -0.8325 H         1 <0>         0.0678
     27 H3         -0.4634    1.8787   -1.2270 H         1 <0>         0.0663
     28 H4          0.0627    1.9159    0.4730 H         1 <0>         0.0658
     29 H5          0.5238   -0.3815   -1.4830 H         1 <0>         0.0875
     30 H6          1.0498   -0.3443    0.2170 H         1 <0>         0.0785
     31 H7         -3.1187   -0.4419   -0.7564 H         1 <0>         0.0839
     32 H8         -2.1695    1.0254   -1.1165 H         1 <0>         0.1044
     33 H9         -2.5465   -0.4275   -3.1438 H         1 <0>         0.1132
     34 H10        -0.8286   -0.1868   -2.7623 H         1 <0>         0.1147
     35 H11        -0.6085   -4.5200    1.3384 H         1 <0>         0.1487
     36 H12        -0.5732   -4.8480    3.7158 H         1 <0>         0.1461
     37 H13        -1.5483    0.4704    4.6748 H         1 <0>         0.1988
@<TRIPOS>BOND
     1    1    2 1
     2    1   26 1
     3    1   27 1
     4    1   28 1
     5    2    3 1
     6    2   29 1
     7    2   30 1
     8    3    9 1
     9    3   16 1
    10    3    4 1
    11    4    5 1
    12    4   31 1
    13    4   32 1
    14    5    6 1
    15    5   33 1
    16    5   34 1
    17    6    7 2
    18    6    8 1
    19    8    9 2
    20    8   22 1
    21    9   10 1
    22   10   15 ar
    23   10   11 ar
    24   11   12 ar
    25   11   35 1
    26   12   13 ar
    27   12   36 1
    28   13   14 ar
    29   13   20 2
    30   14   15 ar
    31   14   18 2
    32   15   16 1
    33   16   17 2
    34   18   37 1
    35   18   19 1
    36   19   21 1
    37   19   20 1
    38   22   23 1
    39   22   24 1
    40   22   25 1
@<TRIPOS>MOLECULE
CHEMBL603966
   58    62     0     0     0
SMALL
USER_CHARGES

@<TRIPOS>ATOM
      1 C1         -0.0187    1.5258    0.0104 C.3       1 <0>        -0.1378
      2 C2          0.0021   -0.0041    0.0020 C.3       1 <0>        -0.0438
      3 C3         -1.4064   -0.5323    0.1772 C.3       1 <0>        -0.1004
      4 C4         -1.9756    0.0797    1.4714 C.3       1 <0>        -0.1133
      5 C5         -1.0851   -0.2532    2.6598 C.3       1 <0>        -0.0424
      6 H1         -1.0806   -1.3360    2.7843 H         1 <0>         0.0767
      7 C6         -1.6005    0.3571    3.9311 C.ar      1 <0>        -0.0765
      8 C7         -2.9742    0.4710    4.0964 C.ar      1 <0>        -0.1030
      9 C8         -3.5002    1.0150    5.2487 C.ar      1 <0>        -0.1473
     10 C9         -2.6480    1.4512    6.2530 C.ar      1 <0>         0.1020
     11 C10        -1.2787    1.3413    6.0863 C.ar      1 <0>        -0.1480
     12 C11        -0.7495    0.7994    4.9225 C.ar      1 <0>        -0.0575
     13 C12         0.7502    0.7384    4.8002 C.3       1 <0>        -0.0822
     14 C13         1.1786   -0.1827    3.6588 C.3       1 <0>        -0.1136
     15 C14         0.3612    0.2021    2.4252 C.3       1 <0>        -0.0741
     16 H2          0.3879    1.2814    2.2748 H         1 <0>         0.0879
     17 C15         0.8604   -0.5199    1.1907 C.3       1 <0>        -0.0817
     18 H3          0.7388   -1.5961    1.3133 H         1 <0>         0.0787
     19 C16         2.2767   -0.1707    0.7204 C.3       1 <0>        -0.1115
     20 C17         2.2489   -0.5546   -0.7844 C.3       1 <0>        -0.1441
     21 C18         0.7638   -0.4984   -1.2221 C.3       1 <0>         0.2591
     22 C19         0.2945   -1.8392   -1.6079 C.1       1 <0>        -0.1969
     23 C20        -0.0798   -2.9086   -1.9155 C.1       1 <0>        -0.1046
     24 C21        -0.5363   -4.2130   -2.2908 C.ar      1 <0>        -0.0545
     25 C22        -1.5493   -4.8365   -1.5600 C.ar      1 <0>        -0.0406
     26 C23        -1.9865   -6.0918   -1.9235 C.ar      1 <0>        -0.1996
     27 C24        -1.4195   -6.7375   -3.0167 C.ar      1 <0>         0.2293
     28 C25        -0.4104   -6.1190   -3.7465 C.ar      1 <0>        -0.2000
     29 C26         0.0267   -4.8612   -3.3916 C.ar      1 <0>        -0.0421
     30 N1         -1.8636   -8.0089   -3.3817 N.pl3     1 <0>        -0.8737
     31 O1          0.6019    0.4156   -2.3086 O.3       1 <0>        -0.5405
     32 O2         -3.1559    1.9844    7.3952 O.3       1 <0>        -0.5004
     33 H4          1.0033    1.9032   -0.0250 H         1 <0>         0.0576
     34 H5         -0.5695    1.8864   -0.8582 H         1 <0>         0.0638
     35 H6         -0.5045    1.8775    0.9205 H         1 <0>         0.0640
     36 H7         -2.0207   -0.2365   -0.6732 H         1 <0>         0.0674
     37 H8         -1.3862   -1.6190    0.2597 H         1 <0>         0.0656
     38 H9         -2.0364    1.1623    1.3603 H         1 <0>         0.0713
     39 H10        -2.9745   -0.3191    1.6483 H         1 <0>         0.0657
     40 H11        -3.6371    0.1306    3.3147 H         1 <0>         0.1276
     41 H12        -4.5700    1.1016    5.3689 H         1 <0>         0.1271
     42 H13        -0.6155    1.6804    6.8684 H         1 <0>         0.1258
     43 H14         1.1338    1.7413    4.6125 H         1 <0>         0.0779
     44 H15         1.1695    0.3666    5.7351 H         1 <0>         0.0747
     45 H16         2.2408   -0.0469    3.4558 H         1 <0>         0.0726
     46 H17         0.9854   -1.2202    3.9313 H         1 <0>         0.0663
     47 H18         2.4720    0.8946    0.8429 H         1 <0>         0.0754
     48 H19         3.0180   -0.7638    1.2560 H         1 <0>         0.0704
     49 H20         2.8367    0.1577   -1.3632 H         1 <0>         0.0809
     50 H21         2.6412   -1.5624   -0.9207 H         1 <0>         0.0721
     51 H22        -1.9896   -4.3358   -0.7104 H         1 <0>         0.1256
     52 H23        -2.7701   -6.5747   -1.3585 H         1 <0>         0.1257
     53 H24         0.0284   -6.6231   -4.5949 H         1 <0>         0.1255
     54 H25         0.8074   -4.3794   -3.9616 H         1 <0>         0.1249
     55 H26        -2.5673   -8.4414   -2.8731 H         1 <0>         0.4004
     56 H27        -1.4688   -8.4602   -4.1441 H         1 <0>         0.4003
     57 H28         1.0650    0.1529   -3.1159 H         1 <0>         0.3781
     58 H29        -3.3231    1.3350    8.0920 H         1 <0>         0.3898
@<TRIPOS>BOND
     1    1    2 1
     2    1   33 1
     3    1   34 1
     4    1   35 1
     5    2   17 1
     6    2   21 1
     7    2    3 1
     8    3    4 1
     9    3   36 1
    10    3   37 1
    11    4    5 1
    12    4   38 1
    13    4   39 1
    14    5    6 1
    15    5   15 1
    16    5    7 1
    17    7   12 ar
    18    7    8 ar
    19    8    9 ar
    20    8   40 1
    21    9   10 ar
    22    9   41 1
    23   10   11 ar
    24   10   32 1
    25   11   12 ar
    26   11   42 1
    27   12   13 1
    28   13   14 1
    29   13   43 1
    30   13   44 1
    31   14   15 1
    32   14   45 1
    33   14   46 1
    34   15   16 1
    35   15   17 1
    36   17   18 1
    37   17   19 1
    38   19   20 1
    39   19   47 1
    40   19   48 1
    41   20   21 1
    42   20   49 1
    43   20   50 1
    44   21   22 1
    45   21   31 1
    46   22   23 3
    47   23   24 1
    48   24   29 ar
    49   24   25 ar
    50   25   26 ar
    51   25   51 1
    52   26   27 ar
    53   26   52 1
    54   27   28 ar
    55   27   30 1
    56   28   29 ar
    57   28   53 1
    58   29   54 1
    59   30   55 1
    60   30   56 1
    61   31   57 1
    62   32   58 1
@<TRIPOS>MOLECULE
CHEMBL597498
   53    57     0     0     0
SMALL
USER_CHARGES

@<TRIPOS>ATOM
      1 C1         -0.0187    1.5258    0.0104 C.3       1 <0>        -0.1376
      2 C2          0.0021   -0.0041    0.0020 C.3       1 <0>        -0.0401
      3 C3         -1.4064   -0.5323    0.1772 C.3       1 <0>        -0.0999
      4 C4         -1.9756    0.0797    1.4714 C.3       1 <0>        -0.1114
      5 C5         -1.0851   -0.2532    2.6598 C.3       1 <0>        -0.0422
      6 H1         -1.0806   -1.3360    2.7843 H         1 <0>         0.0780
      7 C6         -1.6005    0.3571    3.9311 C.ar      1 <0>        -0.0754
      8 C7         -2.9742    0.4710    4.0964 C.ar      1 <0>        -0.1037
      9 C8         -3.5002    1.0150    5.2487 C.ar      1 <0>        -0.1476
     10 C9         -2.6480    1.4512    6.2530 C.ar      1 <0>         0.1012
     11 C10        -1.2787    1.3413    6.0863 C.ar      1 <0>        -0.1479
     12 C11        -0.7495    0.7994    4.9225 C.ar      1 <0>        -0.0571
     13 C12         0.7502    0.7384    4.8002 C.3       1 <0>        -0.0822
     14 C13         1.1786   -0.1827    3.6588 C.3       1 <0>        -0.1135
     15 C14         0.3612    0.2021    2.4252 C.3       1 <0>        -0.0736
     16 H2          0.3879    1.2814    2.2748 H         1 <0>         0.0852
     17 C15         0.8604   -0.5199    1.1907 C.3       1 <0>        -0.0810
     18 H3          0.7388   -1.5961    1.3133 H         1 <0>         0.0913
     19 C16         2.2767   -0.1707    0.7204 C.3       1 <0>        -0.1090
     20 C17         2.2489   -0.5546   -0.7844 C.3       1 <0>        -0.1404
     21 C18         0.7638   -0.4984   -1.2221 C.3       1 <0>         0.2280
     22 C19         0.2833   -1.8711   -1.6170 C.2       1 <0>        -0.0366
     23 C20        -0.2645   -2.2275   -2.8023 C.2       1 <0>        -0.0448
     24 N1         -0.5414   -3.5486   -2.7076 N.pl3     1 <0>        -0.2927
     25 N2         -0.1813   -3.9535   -1.5400 N.2       1 <0>        -0.0838
     26 N3          0.3198   -2.9783   -0.8672 N.2       1 <0>        -0.2501
     27 C21        -1.1473   -4.3758   -3.7539 C.3       1 <0>         0.0794
     28 O1          0.6019    0.4156   -2.3086 O.3       1 <0>        -0.5412
     29 O2         -3.1559    1.9835    7.3956 O.3       1 <0>        -0.5007
     30 H4          1.0033    1.9032   -0.0250 H         1 <0>         0.0570
     31 H5         -0.5695    1.8864   -0.8582 H         1 <0>         0.0614
     32 H6         -0.5045    1.8775    0.9205 H         1 <0>         0.0628
     33 H7         -2.0207   -0.2365   -0.6732 H         1 <0>         0.0612
     34 H8         -1.3862   -1.6190    0.2597 H         1 <0>         0.0669
     35 H9         -2.0364    1.1623    1.3603 H         1 <0>         0.0701
     36 H10        -2.9745   -0.3191    1.6483 H         1 <0>         0.0632
     37 H11        -3.6371    0.1306    3.3147 H         1 <0>         0.1267
     38 H12        -4.5700    1.1016    5.3689 H         1 <0>         0.1266
     39 H13        -0.6155    1.6804    6.8684 H         1 <0>         0.1257
     40 H14         1.1338    1.7413    4.6125 H         1 <0>         0.0773
     41 H15         1.1695    0.3666    5.7351 H         1 <0>         0.0743
     42 H16         2.2408   -0.0469    3.4558 H         1 <0>         0.0724
     43 H17         0.9854   -1.2202    3.9313 H         1 <0>         0.0672
     44 H18         2.4720    0.8946    0.8429 H         1 <0>         0.0715
     45 H19         3.0180   -0.7638    1.2560 H         1 <0>         0.0693
     46 H20         2.8367    0.1577   -1.3632 H         1 <0>         0.0760
     47 H21         2.6412   -1.5624   -0.9207 H         1 <0>         0.0715
     48 H22        -0.4450   -1.5862   -3.6524 H         1 <0>         0.1898
     49 H23        -0.3631   -4.8030   -4.3790 H         1 <0>         0.0926
     50 H24        -1.7233   -5.1789   -3.2942 H         1 <0>         0.1029
     51 H25        -1.8062   -3.7610   -4.3671 H         1 <0>         0.0996
     52 H26         1.0650    0.1529   -3.1159 H         1 <0>         0.3739
     53 H27        -3.3226    1.3338    8.0921 H         1 <0>         0.3896
@<TRIPOS>BOND
     1    1    2 1
     2    1   30 1
     3    1   31 1
     4    1   32 1
     5    2   17 1
     6    2   21 1
     7    2    3 1
     8    3    4 1
     9    3   33 1
    10    3   34 1
    11    4    5 1
    12    4   35 1
    13    4   36 1
    14    5    6 1
    15    5   15 1
    16    5    7 1
    17    7   12 ar
    18    7    8 ar
    19    8    9 ar
    20    8   37 1
    21    9   10 ar
    22    9   38 1
    23   10   11 ar
    24   10   29 1
    25   11   12 ar
    26   11   39 1
    27   12   13 1
    28   13   14 1
    29   13   40 1
    30   13   41 1
    31   14   15 1
    32   14   42 1
    33   14   43 1
    34   15   16 1
    35   15   17 1
    36   17   18 1
    37   17   19 1
    38   19   20 1
    39   19   44 1
    40   19   45 1
    41   20   21 1
    42   20   46 1
    43   20   47 1
    44   21   22 1
    45   21   28 1
    46   22   26 1
    47   22   23 2
    48   23   24 1
    49   23   48 1
    50   24   25 1
    51   24   27 1
    52   25   26 2
    53   27   49 1
    54   27   50 1
    55   27   51 1
    56   28   52 1
    57   29   53 1
@<TRIPOS>MOLECULE
CHEMBL31721
   30    32     0     0     0
SMALL
USER_CHARGES

@<TRIPOS>ATOM
      1 C1         -0.0184    1.5028    0.0103 C.3       1 <0>        -0.1255
      2 C2          0.0021   -0.0041    0.0020 C.ar      1 <0>        -0.0430
      3 C3          0.0058   -0.6878   -1.1953 C.ar      1 <0>        -0.1455
      4 C4          0.0251   -2.0760   -1.2040 C.ar      1 <0>         0.1225
      5 C5          0.0407   -2.7814   -0.0078 C.ar      1 <0>        -0.1501
      6 C6          0.0371   -2.1052    1.1933 C.ar      1 <0>        -0.0709
      7 C7          0.0231   -0.7093    1.2063 C.ar      1 <0>        -0.0329
      8 C8          0.0248    0.0200    2.4923 C.2       1 <0>        -0.0820
      9 C9         -0.7733   -0.1755    3.5685 C.2       1 <0>        -0.1257
     10 C10        -0.5960    0.6651    4.7407 C.ar      1 <0>        -0.0973
     11 C11        -1.3105    0.6374    5.9637 C.ar      1 <0>        -0.0566
     12 C12        -1.0108    1.5058    6.9646 C.ar      1 <0>        -0.1452
     13 C13         0.0038    2.4508    6.8279 C.ar      1 <0>         0.1316
     14 C14         0.7254    2.5085    5.6466 C.ar      1 <0>        -0.1052
     15 C15         0.4282    1.6314    4.6261 C.ar      1 <0>        -0.1031
     16 S1          1.0833    1.3616    2.9994 S.3       1 <0>         0.0536
     17 O1          0.2830    3.3089    7.8446 O.3       1 <0>        -0.4924
     18 O2          0.0283   -2.7463   -2.3860 O.3       1 <0>        -0.4981
     19 H1          1.0042    1.8801    0.0026 H         1 <0>         0.0783
     20 H2         -0.5455    1.8639   -0.8728 H         1 <0>         0.0740
     21 H3         -0.5286    1.8543    0.9071 H         1 <0>         0.0747
     22 H4         -0.0067   -0.1428   -2.1276 H         1 <0>         0.1350
     23 H5          0.0554   -3.8613   -0.0187 H         1 <0>         0.1351
     24 H6          0.0489   -2.6545    2.1231 H         1 <0>         0.1327
     25 H7         -1.5311   -0.9449    3.5559 H         1 <0>         0.1404
     26 H8         -2.1034   -0.0827    6.1019 H         1 <0>         0.1319
     27 H9         -1.5718    1.4629    7.8865 H         1 <0>         0.1354
     28 H10         1.5145    3.2360    5.5261 H         1 <0>         0.1381
     29 H11         0.9461    2.9793    8.4665 H         1 <0>         0.3957
     30 H12         0.9125   -2.9279   -2.7327 H         1 <0>         0.3944
@<TRIPOS>BOND
     1    1    2 1
     2    1   19 1
     3    1   20 1
     4    1   21 1
     5    2    7 ar
     6    2    3 ar
     7    3    4 ar
     8    3   22 1
     9    4    5 ar
    10    4   18 1
    11    5    6 ar
    12    5   23 1
    13    6    7 ar
    14    6   24 1
    15    7    8 1
    16    8   16 1
    17    8    9 2
    18    9   10 1
    19    9   25 1
    20   10   15 ar
    21   10   11 ar
    22   11   12 ar
    23   11   26 1
    24   12   13 ar
    25   12   27 1
    26   13   14 ar
    27   13   17 1
    28   14   15 ar
    29   14   28 1
    30   15   16 1
    31   17   29 1
    32   18   30 1
@<TRIPOS>MOLECULE
CHEMBL551
   48    51     0     0     0
SMALL
USER_CHARGES

@<TRIPOS>ATOM
      1 C1         -0.0187    1.5258    0.0104 C.3       1 <0>        -0.1354
      2 C2          0.0021   -0.0041    0.0020 C.3       1 <0>        -0.0446
      3 C3         -1.4158   -0.5376    0.0743 C.3       1 <0>        -0.1008
      4 C4         -2.0776    0.1004    1.3059 C.3       1 <0>        -0.1180
      5 C5         -1.2987   -0.1969    2.5836 C.3       1 <0>        -0.0711
      6 C6          0.1785    0.2032    2.4579 C.3       1 <0>        -0.0760
      7 C7          0.7514   -0.5272    1.2569 C.3       1 <0>        -0.0828
      8 C8          2.2067   -0.1924    0.9110 C.3       1 <0>        -0.1131
      9 C9          2.3039   -0.5736   -0.5914 C.3       1 <0>        -0.1451
     10 C10         0.8625   -0.5030   -1.1542 C.3       1 <0>         0.2506
     11 C11         0.4162   -1.8387   -1.5826 C.1       1 <0>        -0.2102
     12 C12         0.0604   -2.9040   -1.9243 C.1       1 <0>        -0.1803
     13 O1          0.8024    0.4146   -2.2480 O.3       1 <0>        -0.5406
     14 C13         0.9212   -0.2263    3.7266 C.3       1 <0>        -0.1132
     15 C14         0.3814    0.5679    4.9179 C.3       1 <0>        -0.0972
     16 C15        -1.1223    0.3756    4.9929 C.2       1 <0>        -0.0244
     17 C16        -1.6475    0.0516    6.1742 C.2       1 <0>        -0.2441
     18 C17        -3.0970   -0.1301    6.3074 C.2       1 <0>         0.3877
     19 O2         -3.5792   -0.7760    7.2143 O.2       1 <0>        -0.4582
     20 C18        -3.9607    0.5325    5.2519 C.3       1 <0>        -0.1681
     21 C19        -3.3883    0.1505    3.8876 C.3       1 <0>        -0.1098
     22 C20        -1.9353    0.5693    3.7500 C.3       1 <0>        -0.0596
     23 H1          1.0039    1.9031    0.0027 H         1 <0>         0.0577
     24 H2         -0.5459    1.8868   -0.8726 H         1 <0>         0.0626
     25 H3         -0.5289    1.8773    0.9072 H         1 <0>         0.0643
     26 H4         -1.9632   -0.2607   -0.8267 H         1 <0>         0.0670
     27 H5         -1.3995   -1.6222    0.1815 H         1 <0>         0.0646
     28 H6         -2.1276    1.1799    1.1632 H         1 <0>         0.0703
     29 H7         -3.0900   -0.2904    1.4078 H         1 <0>         0.0664
     30 H8         -1.3515   -1.2658    2.7908 H         1 <0>         0.0716
     31 H9          0.2617    1.2803    2.3134 H         1 <0>         0.0875
     32 H10         0.6125   -1.6031    1.3628 H         1 <0>         0.0782
     33 H11         2.4020    0.8706    1.0526 H         1 <0>         0.0754
     34 H12         2.8929   -0.7943    1.5068 H         1 <0>         0.0705
     35 H13         2.9456    0.1343   -1.1162 H         1 <0>         0.0809
     36 H14         2.6974   -1.5847   -0.6961 H         1 <0>         0.0721
     37 H15        -0.2579   -3.8568   -2.2299 H         1 <0>         0.2181
     38 H16         1.3308    0.1496   -3.0133 H         1 <0>         0.3785
     39 H17         0.7643   -1.2913    3.8976 H         1 <0>         0.0658
     40 H18         1.9867   -0.0283    3.6095 H         1 <0>         0.0727
     41 H19         0.8423    0.2062    5.8371 H         1 <0>         0.0777
     42 H20         0.6083    1.6257    4.7848 H         1 <0>         0.0846
     43 H21        -1.0059   -0.0776    7.0333 H         1 <0>         0.1334
     44 H22        -4.9874    0.1760    5.3359 H         1 <0>         0.0924
     45 H23        -3.9321    1.6150    5.3758 H         1 <0>         0.0997
     46 H24        -3.4601   -0.9299    3.7619 H         1 <0>         0.0688
     47 H25        -3.9738    0.6373    3.1076 H         1 <0>         0.0828
     48 H26        -1.9237    1.6304    3.5010 H         1 <0>         0.0907
@<TRIPOS>BOND
     1    1    2 1
     2    1   23 1
     3    1   24 1
     4    1   25 1
     5    2    7 1
     6    2   10 1
     7    2    3 1
     8    3    4 1
     9    3   26 1
    10    3   27 1
    11    4    5 1
    12    4   28 1
    13    4   29 1
    14    5   22 1
    15    5    6 1
    16    5   30 1
    17    6    7 1
    18    6   14 1
    19    6   31 1
    20    7    8 1
    21    7   32 1
    22    8    9 1
    23    8   33 1
    24    8   34 1
    25    9   10 1
    26    9   35 1
    27    9   36 1
    28   10   11 1
    29   10   13 1
    30   11   12 3
    31   12   37 1
    32   13   38 1
    33   14   15 1
    34   14   39 1
    35   14   40 1
    36   15   16 1
    37   15   41 1
    38   15   42 1
    39   16   22 1
    40   16   17 2
    41   17   18 1
    42   17   43 1
    43   18   19 2
    44   18   20 1
    45   20   21 1
    46   20   44 1
    47   20   45 1
    48   21   22 1
    49   21   46 1
    50   21   47 1
    51   22   48 1
@<TRIPOS>MOLECULE
CHEMBL417596
   61    65     0     0     0
SMALL
USER_CHARGES

@<TRIPOS>ATOM
      1 C1          2.5582    3.0025    0.2201 C.ar      1 <0>        -0.1182
      2 C2          1.8756    1.8115    0.3833 C.ar      1 <0>        -0.1217
      3 C3          2.5325    0.6084    0.2047 C.ar      1 <0>        -0.1165
      4 C4          3.8718    0.5962   -0.1375 C.ar      1 <0>        -0.0727
      5 C5          4.5541    1.7872   -0.3016 C.ar      1 <0>        -0.1122
      6 C6          3.8976    2.9903   -0.1216 C.ar      1 <0>        -0.1220
      7 C7          4.5881   -0.7154   -0.3312 C.3       1 <0>        -0.0808
      8 H1          5.5460   -0.5419   -0.8215 H         1 <0>         0.1025
      9 C8          4.8177   -1.3851    1.0297 C.3       1 <0>         0.0681
     10 O1          3.5575   -1.5043    1.6912 O.3       1 <0>        -0.3032
     11 C9          2.5209   -2.0348    0.9915 C.ar      1 <0>         0.1599
     12 C10         1.4133   -2.4949    1.6952 C.ar      1 <0>        -0.1827
     13 C11         0.3347   -3.0378    1.0179 C.ar      1 <0>         0.1499
     14 C12         0.3606   -3.1220   -0.3673 C.ar      1 <0>        -0.1780
     15 C13         1.4613   -2.6669   -1.0643 C.ar      1 <0>        -0.0623
     16 C14         2.5435   -2.1254   -0.3896 C.ar      1 <0>        -0.1741
     17 C15         3.7312   -1.6494   -1.1892 C.3       1 <0>         0.0050
     18 H2          4.3279   -2.5077   -1.4978 H         1 <0>         0.1003
     19 C16         3.2508   -0.9086   -2.4104 C.ar      1 <0>        -0.0889
     20 C17         2.0311   -0.2578   -2.3875 C.ar      1 <0>        -0.0587
     21 C18         1.5883    0.4216   -3.5058 C.ar      1 <0>        -0.1402
     22 C19         2.3687    0.4510   -4.6524 C.ar      1 <0>         0.1126
     23 C20         3.5924   -0.2024   -4.6727 C.ar      1 <0>        -0.2018
     24 C21         4.0331   -0.8761   -3.5500 C.ar      1 <0>        -0.0723
     25 O2          1.9351    1.1183   -5.7540 O.3       1 <0>        -0.3289
     26 C22         2.7908    1.1063   -6.8985 C.3       1 <0>         0.0278
     27 C23         2.1395    1.9032   -8.0306 C.3       1 <0>         0.0038
     28 N1          2.0349    3.3150   -7.6384 N.4       1 <0>        -0.3956
     29 C24         3.3859    3.9282   -7.5671 C.3       1 <0>        -0.0102
     30 C25         3.0958    5.4431   -7.7136 C.3       1 <0>        -0.1447
     31 C26         1.9411    5.4762   -8.7410 C.3       1 <0>        -0.1449
     32 C27         1.2999    4.0779   -8.6705 C.3       1 <0>        -0.0088
     33 O3         -0.7464   -3.4875    1.7076 O.3       1 <0>        -0.4937
     34 H3          2.0439    3.9425    0.3553 H         1 <0>         0.1191
     35 H4          0.8293    1.8210    0.6507 H         1 <0>         0.1191
     36 H5          1.9994   -0.3221    0.3329 H         1 <0>         0.1374
     37 H6          5.6005    1.7777   -0.5686 H         1 <0>         0.1184
     38 H7          4.4307    3.9208   -0.2494 H         1 <0>         0.1194
     39 H8          5.2507   -2.3746    0.8836 H         1 <0>         0.0755
     40 H9          5.4913   -0.7741    1.6306 H         1 <0>         0.1153
     41 H10         1.3945   -2.4288    2.7731 H         1 <0>         0.1409
     42 H11        -0.4796   -3.5436   -0.8990 H         1 <0>         0.1332
     43 H12         1.4792   -2.7333   -2.1421 H         1 <0>         0.1297
     44 H13         1.4239   -0.2810   -1.4947 H         1 <0>         0.1401
     45 H14         0.6352    0.9292   -3.4877 H         1 <0>         0.1302
     46 H15         4.2018   -0.1810   -5.5641 H         1 <0>         0.1260
     47 H16         4.9876   -1.3812   -3.5639 H         1 <0>         0.1296
     48 H17         3.7487    1.5579   -6.6407 H         1 <0>         0.0843
     49 H18         2.9494    0.0778   -7.2227 H         1 <0>         0.1076
     50 H19         2.7489    1.8202   -8.9305 H         1 <0>         0.1482
     51 H20         1.1437    1.5062   -8.2282 H         1 <0>         0.1411
     52 H21         3.8537    3.7173   -6.6054 H         1 <0>         0.1329
     53 H22         4.0122    3.5754   -8.3864 H         1 <0>         0.1347
     54 H23         2.7776    5.8687   -6.7619 H         1 <0>         0.0982
     55 H24         3.9701    5.9677   -8.0989 H         1 <0>         0.1173
     56 H25         1.2134    6.2403   -8.4677 H         1 <0>         0.1057
     57 H26         2.3303    5.6639   -9.7416 H         1 <0>         0.1045
     58 H27         1.3899    3.5790   -9.6355 H         1 <0>         0.1314
     59 H28         0.2499    4.1645   -8.3909 H         1 <0>         0.1329
     60 H29        -1.4278   -2.8167    1.8519 H         1 <0>         0.3967
     61 H30         1.5678    3.3954   -6.7477 H         1 <0>         0.4336
@<TRIPOS>BOND
     1    1    6 ar
     2    1    2 ar
     3    1   34 1
     4    2    3 ar
     5    2   35 1
     6    3    4 ar
     7    3   36 1
     8    4    5 ar
     9    4    7 1
    10    5    6 ar
    11    5   37 1
    12    6   38 1
    13    7    8 1
    14    7   17 1
    15    7    9 1
    16    9   10 1
    17    9   39 1
    18    9   40 1
    19   10   11 1
    20   11   16 ar
    21   11   12 ar
    22   12   13 ar
    23   12   41 1
    24   13   14 ar
    25   13   33 1
    26   14   15 ar
    27   14   42 1
    28   15   16 ar
    29   15   43 1
    30   16   17 1
    31   17   18 1
    32   17   19 1
    33   19   24 ar
    34   19   20 ar
    35   20   21 ar
    36   20   44 1
    37   21   22 ar
    38   21   45 1
    39   22   23 ar
    40   22   25 1
    41   23   24 ar
    42   23   46 1
    43   24   47 1
    44   25   26 1
    45   26   27 1
    46   26   48 1
    47   26   49 1
    48   27   28 1
    49   27   50 1
    50   27   51 1
    51   28   32 1
    52   28   29 1
    53   28   61 1
    54   29   30 1
    55   29   52 1
    56   29   53 1
    57   30   31 1
    58   30   54 1
    59   30   55 1
    60   31   32 1
    61   31   56 1
    62   31   57 1
    63   32   58 1
    64   32   59 1
    65   33   60 1
@<TRIPOS>MOLECULE
CHEMBL241257
   88    92     0     0     0
SMALL
USER_CHARGES

@<TRIPOS>ATOM
      1 C1         -0.0187    1.5258    0.0104 C.3       1 <0>        -0.1649
      2 C2          0.0021   -0.0041    0.0020 C.3       1 <0>         0.1420
      3 H1         -1.0205   -0.3814    0.0098 H         1 <0>         0.0894
      4 C3          0.7421   -0.5109    1.2415 C.3       1 <0>        -0.1219
      5 C4          0.6554   -2.0374    1.2986 C.3       1 <0>        -0.0786
      6 C5          1.3843   -2.5366    2.5195 C.ar      1 <0>        -0.0926
      7 C6          2.7308   -2.8411    2.4430 C.ar      1 <0>        -0.1007
      8 C7          3.4011   -3.2993    3.5606 C.ar      1 <0>        -0.1428
      9 C8          2.7222   -3.4534    4.7606 C.ar      1 <0>         0.1012
     10 C9          1.3712   -3.1468    4.8349 C.ar      1 <0>        -0.1423
     11 C10         0.7066   -2.6840    3.7157 C.ar      1 <0>        -0.1005
     12 O1          3.3793   -3.9045    5.8614 O.3       1 <0>        -0.5004
     13 N1          0.6878   -0.4765   -1.2033 N.am      1 <0>        -0.7287
     14 C11         0.0062   -0.6081   -2.3585 C.2       1 <0>         0.5133
     15 O2         -1.1748   -0.3355   -2.4003 O.2       1 <0>        -0.5248
     16 C12         0.7116   -1.0941   -3.5984 C.3       1 <0>        -0.0697
     17 C13        -0.2670   -1.1518   -4.7431 C.2       1 <0>        -0.1363
     18 C14        -1.1025   -2.2917   -5.1166 C.ar      1 <0>        -0.0527
     19 C15        -1.2664   -3.5823   -4.6011 C.ar      1 <0>        -0.0995
     20 C16        -2.1502   -4.4420   -5.1882 C.ar      1 <0>        -0.1066
     21 C17        -2.8897   -4.0477   -6.2951 C.ar      1 <0>        -0.1957
     22 C18        -2.7449   -2.7784   -6.8226 C.ar      1 <0>         0.1201
     23 C19        -1.8479   -1.8840   -6.2372 C.ar      1 <0>         0.0839
     24 N2         -1.4874   -0.5841   -6.5225 N.pl3     1 <0>        -0.5770
     25 H2         -1.8479   -0.0516   -7.2488 H         1 <0>         0.4176
     26 C20        -0.5442   -0.1541   -5.6188 C.2       1 <0>         0.1461
     27 C21         0.0746    1.1892   -5.6056 C.ar      1 <0>        -0.0418
     28 C22         0.2192    1.8822   -4.4031 C.ar      1 <0>        -0.0927
     29 C23         0.7977    3.1347   -4.3974 C.ar      1 <0>        -0.1164
     30 C24         1.2337    3.7039   -5.5807 C.ar      1 <0>        -0.1073
     31 C25         1.0929    3.0222   -6.7764 C.ar      1 <0>        -0.1180
     32 C26         0.5217    1.7665   -6.7948 C.ar      1 <0>        -0.1056
     33 O3         -3.4735   -2.4028   -7.9074 O.3       1 <0>        -0.3234
     34 C27        -4.3714   -3.3715   -8.4529 C.3       1 <0>         0.0611
     35 C28        -5.0975   -2.7717   -9.6587 C.3       1 <0>        -0.1202
     36 C29        -6.0589   -3.8088  -10.2427 C.3       1 <0>        -0.1144
     37 C30        -6.7850   -3.2091  -11.4485 C.3       1 <0>        -0.1479
     38 C31        -7.7464   -4.2462  -12.0325 C.3       1 <0>        -0.0104
     39 N3         -8.4436   -3.6703  -13.1903 N.4       1 <0>        -0.3831
     40 C32        -9.2865   -2.5537  -12.7463 C.3       1 <0>        -0.0122
     41 C33        -9.9522   -1.8988  -13.9585 C.3       1 <0>        -0.1461
     42 C34       -10.8157   -2.9360  -14.6821 C.3       1 <0>        -0.1397
     43 C35        -9.9406   -4.1297  -15.0750 C.3       1 <0>        -0.1465
     44 C36        -9.2753   -4.7020  -13.8215 C.3       1 <0>        -0.0068
     45 H3          1.0039    1.9031    0.0027 H         1 <0>         0.0580
     46 H4         -0.5459    1.8868   -0.8726 H         1 <0>         0.0601
     47 H5         -0.5289    1.8773    0.9072 H         1 <0>         0.0663
     48 H6          1.7879   -0.2080    1.1895 H         1 <0>         0.0716
     49 H7          0.2852   -0.0874    2.1360 H         1 <0>         0.0815
     50 H8         -0.3904   -2.3402    1.3506 H         1 <0>         0.0740
     51 H9          1.1123   -2.4609    0.4042 H         1 <0>         0.0737
     52 H10         3.2589   -2.7209    1.5086 H         1 <0>         0.1254
     53 H11         4.4528   -3.5377    3.5002 H         1 <0>         0.1286
     54 H12         0.8404   -3.2660    5.7679 H         1 <0>         0.1287
     55 H13        -0.3440   -2.4409    3.7741 H         1 <0>         0.1261
     56 H14         3.7706   -3.2036    6.4006 H         1 <0>         0.3919
     57 H15         1.6324   -0.6946   -1.1699 H         1 <0>         0.3997
     58 H16         1.5220   -0.4092   -3.8474 H         1 <0>         0.1016
     59 H17         1.1190   -2.0889   -3.4183 H         1 <0>         0.1032
     60 H18        -0.6949   -3.8979   -3.7408 H         1 <0>         0.1232
     61 H19        -2.2747   -5.4374   -4.7883 H         1 <0>         0.1261
     62 H20        -3.5844   -4.7394   -6.7483 H         1 <0>         0.1272
     63 H21        -0.1214    1.4392   -3.4788 H         1 <0>         0.1317
     64 H22         0.9102    3.6721   -3.4674 H         1 <0>         0.1277
     65 H23         1.6856    4.6848   -5.5710 H         1 <0>         0.1268
     66 H24         1.4346    3.4723   -7.6967 H         1 <0>         0.1271
     67 H25         0.4167    1.2333   -7.7281 H         1 <0>         0.1210
     68 H26        -3.8097   -4.2510   -8.7676 H         1 <0>         0.0642
     69 H27        -5.1007   -3.6580   -7.6952 H         1 <0>         0.0640
     70 H28        -5.6592   -1.8922   -9.3440 H         1 <0>         0.0772
     71 H29        -4.3682   -2.4852  -10.4164 H         1 <0>         0.0774
     72 H30        -5.4972   -4.6883  -10.5574 H         1 <0>         0.0787
     73 H31        -6.7882   -4.0954   -9.4850 H         1 <0>         0.0784
     74 H32        -7.3467   -2.3295  -11.1339 H         1 <0>         0.0888
     75 H33        -6.0557   -2.9225  -12.2062 H         1 <0>         0.0888
     76 H34        -7.1847   -5.1257  -12.3472 H         1 <0>         0.1316
     77 H35        -8.4758   -4.5327  -11.2749 H         1 <0>         0.1299
     78 H36       -10.0541   -2.9259  -12.0678 H         1 <0>         0.1283
     79 H37        -8.6710   -1.8179  -12.2286 H         1 <0>         0.1310
     80 H38       -10.5790   -1.0711  -13.6265 H         1 <0>         0.1118
     81 H39        -9.1854   -1.5260  -14.6376 H         1 <0>         0.0872
     82 H40       -11.6140   -3.2715  -14.0200 H         1 <0>         0.0817
     83 H41       -11.2472   -2.4898  -15.5781 H         1 <0>         0.0942
     84 H42       -10.5591   -4.8967  -15.5412 H         1 <0>         0.1122
     85 H43        -9.1736   -3.8032  -15.7773 H         1 <0>         0.0874
     86 H44        -8.6516   -5.5522  -14.0976 H         1 <0>         0.1298
     87 H45       -10.0431   -5.0284  -13.1200 H         1 <0>         0.1280
     88 H46        -7.7651   -3.3327  -13.8564 H         1 <0>         0.4221
@<TRIPOS>BOND
     1    1    2 1
     2    1   45 1
     3    1   46 1
     4    1   47 1
     5    2    3 1
     6    2    4 1
     7    2   13 1
     8    4    5 1
     9    4   48 1
    10    4   49 1
    11    5    6 1
    12    5   50 1
    13    5   51 1
    14    6   11 ar
    15    6    7 ar
    16    7    8 ar
    17    7   52 1
    18    8    9 ar
    19    8   53 1
    20    9   10 ar
    21    9   12 1
    22   10   11 ar
    23   10   54 1
    24   11   55 1
    25   12   56 1
    26   13   14 am
    27   13   57 1
    28   14   15 2
    29   14   16 1
    30   16   17 1
    31   16   58 1
    32   16   59 1
    33   17   26 2
    34   17   18 1
    35   18   23 ar
    36   18   19 ar
    37   19   20 ar
    38   19   60 1
    39   20   21 ar
    40   20   61 1
    41   21   22 ar
    42   21   62 1
    43   22   23 ar
    44   22   33 1
    45   23   24 1
    46   24   25 1
    47   24   26 1
    48   26   27 1
    49   27   32 ar
    50   27   28 ar
    51   28   29 ar
    52   28   63 1
    53   29   30 ar
    54   29   64 1
    55   30   31 ar
    56   30   65 1
    57   31   32 ar
    58   31   66 1
    59   32   67 1
    60   33   34 1
    61   34   35 1
    62   34   68 1
    63   34   69 1
    64   35   36 1
    65   35   70 1
    66   35   71 1
    67   36   37 1
    68   36   72 1
    69   36   73 1
    70   37   38 1
    71   37   74 1
    72   37   75 1
    73   38   39 1
    74   38   76 1
    75   38   77 1
    76   39   44 1
    77   39   40 1
    78   39   88 1
    79   40   41 1
    80   40   78 1
    81   40   79 1
    82   41   42 1
    83   41   80 1
    84   41   81 1
    85   42   43 1
    86   42   82 1
    87   42   83 1
    88   43   44 1
    89   43   84 1
    90   43   85 1
    91   44   86 1
    92   44   87 1
@<TRIPOS>MOLECULE
CHEMBL238960
   85    89     0     0     0
SMALL
USER_CHARGES

@<TRIPOS>ATOM
      1 C1         -0.0187    1.5258    0.0104 C.3       1 <0>        -0.1650
      2 C2          0.0021   -0.0041    0.0020 C.3       1 <0>         0.1421
      3 H1          0.5123   -0.3556   -0.8948 H         1 <0>         0.0894
      4 C3         -1.4333   -0.5336    0.0129 C.3       1 <0>        -0.1221
      5 C4         -1.4157   -2.0577   -0.1212 C.3       1 <0>        -0.0784
      6 C5         -2.8295   -2.5793   -0.1105 C.ar      1 <0>        -0.0929
      7 C6         -3.4314   -2.9172    1.0875 C.ar      1 <0>        -0.1008
      8 C7         -4.7271   -3.3960    1.1000 C.ar      1 <0>        -0.1428
      9 C8         -5.4247   -3.5373   -0.0909 C.ar      1 <0>         0.1014
     10 C9         -4.8186   -3.1971   -1.2916 C.ar      1 <0>        -0.1423
     11 C10        -3.5245   -2.7138   -1.2982 C.ar      1 <0>        -0.1005
     12 O1         -6.6993   -4.0085   -0.0813 O.3       1 <0>        -0.5003
     13 N1          0.7106   -0.4894    1.1889 N.am      1 <0>        -0.7284
     14 C11         2.0538   -0.5998    1.1737 C.2       1 <0>         0.5134
     15 O2          2.6758   -0.2974    0.1774 O.2       1 <0>        -0.5253
     16 C12         2.7826   -1.0990    2.3946 C.3       1 <0>        -0.0702
     17 C13         4.2638   -1.1281    2.1185 C.2       1 <0>        -0.1360
     18 C14         5.0227   -2.2454    1.5591 C.ar      1 <0>        -0.0523
     19 C15         4.6782   -3.5332    1.1335 C.ar      1 <0>        -0.0970
     20 C16         5.6417   -4.3684    0.6447 C.ar      1 <0>        -0.1077
     21 C17         6.9637   -3.9518    0.5657 C.ar      1 <0>        -0.1948
     22 C18         7.3285   -2.6847    0.9801 C.ar      1 <0>         0.1182
     23 C19         6.3592   -1.8152    1.4820 C.ar      1 <0>         0.0847
     24 N2          6.4060   -0.5237    1.9628 N.pl3     1 <0>        -0.5772
     25 H2          7.2068    0.0202    2.0244 H         1 <0>         0.4178
     26 C20         5.1453   -0.1207    2.3362 C.2       1 <0>         0.1477
     27 C21         4.8037    1.2066    2.8922 C.ar      1 <0>        -0.0432
     28 C22         3.6792    1.8916    2.4300 C.ar      1 <0>        -0.0925
     29 C23         3.3657    3.1291    2.9532 C.ar      1 <0>        -0.1162
     30 C24         4.1637    3.6913    3.9336 C.ar      1 <0>        -0.1065
     31 C25         5.2802    3.0176    4.3958 C.ar      1 <0>        -0.1179
     32 C26         5.6012    1.7766    3.8854 C.ar      1 <0>        -0.1054
     33 O3          8.6262   -2.2872    0.8992 O.3       1 <0>        -0.3221
     34 C27         9.5624   -3.2310    0.3751 C.3       1 <0>         0.0620
     35 C28        10.9602   -2.6091    0.3613 C.3       1 <0>        -0.1176
     36 C29        11.9625   -3.6196   -0.1999 C.3       1 <0>        -0.1462
     37 C30        13.3603   -2.9976   -0.2137 C.3       1 <0>        -0.0084
     38 N3         14.3227   -3.9679   -0.7525 N.4       1 <0>        -0.3831
     39 C31        14.4106   -5.1212    0.1513 C.3       1 <0>        -0.0126
     40 C32        15.3504   -6.1711   -0.4453 C.3       1 <0>        -0.1461
     41 C33        16.7414   -5.5576   -0.6293 C.3       1 <0>        -0.1398
     42 C34        16.6264   -4.3124   -1.5133 C.3       1 <0>        -0.1466
     43 C35        15.6394   -3.3313   -0.8771 C.3       1 <0>        -0.0068
     44 H3          1.0039    1.9031    0.0027 H         1 <0>         0.0600
     45 H4         -0.5459    1.8868   -0.8726 H         1 <0>         0.0665
     46 H5         -0.5289    1.8773    0.9072 H         1 <0>         0.0581
     47 H6         -1.9156   -0.2570    0.9504 H         1 <0>         0.0717
     48 H7         -1.9862   -0.1019   -0.8214 H         1 <0>         0.0816
     49 H8         -0.9334   -2.3344   -1.0587 H         1 <0>         0.0739
     50 H9         -0.8628   -2.4894    0.7131 H         1 <0>         0.0735
     51 H10        -2.8879   -2.8071    2.0143 H         1 <0>         0.1254
     52 H11        -5.1966   -3.6605    2.0359 H         1 <0>         0.1286
     53 H12        -5.3596   -3.3061   -2.2200 H         1 <0>         0.1288
     54 H13        -3.0538   -2.4447   -2.2322 H         1 <0>         0.1261
     55 H14        -7.3727   -3.3195    0.0019 H         1 <0>         0.3920
     56 H15         0.2131   -0.7312    1.9857 H         1 <0>         0.3998
     57 H16         2.5826   -0.4337    3.2345 H         1 <0>         0.1020
     58 H17         2.4385   -2.1044    2.6374 H         1 <0>         0.1034
     59 H18         3.6525   -3.8661    1.1920 H         1 <0>         0.1239
     60 H19         5.3731   -5.3618    0.3170 H         1 <0>         0.1265
     61 H20         7.7142   -4.6242    0.1770 H         1 <0>         0.1263
     62 H21         3.0559    1.4540    1.6642 H         1 <0>         0.1317
     63 H22         2.4957    3.6603    2.5963 H         1 <0>         0.1280
     64 H23         3.9142    4.6605    4.3396 H         1 <0>         0.1272
     65 H24         5.8995    3.4621    5.1608 H         1 <0>         0.1274
     66 H25         6.4702    1.2495    4.2504 H         1 <0>         0.1209
     67 H26         9.5679   -4.1233    1.0012 H         1 <0>         0.0654
     68 H27         9.2751   -3.5019   -0.6409 H         1 <0>         0.0658
     69 H28        10.9547   -1.7168   -0.2648 H         1 <0>         0.0856
     70 H29        11.2474   -2.3382    1.3773 H         1 <0>         0.0850
     71 H30        11.9681   -4.5119    0.4262 H         1 <0>         0.0910
     72 H31        11.6753   -3.8904   -1.2159 H         1 <0>         0.0913
     73 H32        13.3548   -2.1054   -0.8398 H         1 <0>         0.1331
     74 H33        13.6476   -2.7268    0.8023 H         1 <0>         0.1313
     75 H34        14.7963   -4.7963    1.1177 H         1 <0>         0.1286
     76 H35        13.4194   -5.5547    0.2838 H         1 <0>         0.1310
     77 H36        15.4157   -7.0258    0.2280 H         1 <0>         0.1120
     78 H37        14.9655   -6.4969   -1.4117 H         1 <0>         0.0875
     79 H38        17.1481   -5.2783    0.3426 H         1 <0>         0.0817
     80 H39        17.3998   -6.2837   -1.1063 H         1 <0>         0.0944
     81 H40        17.6039   -3.8384   -1.6033 H         1 <0>         0.1124
     82 H41        16.2681   -4.5996   -2.5018 H         1 <0>         0.0876
     83 H42        15.5554   -2.4435   -1.5038 H         1 <0>         0.1301
     84 H43        15.9989   -3.0446    0.1112 H         1 <0>         0.1283
     85 H44        14.0130   -4.2782   -1.6613 H         1 <0>         0.4224
@<TRIPOS>BOND
     1    1    2 1
     2    1   44 1
     3    1   45 1
     4    1   46 1
     5    2    3 1
     6    2    4 1
     7    2   13 1
     8    4    5 1
     9    4   47 1
    10    4   48 1
    11    5    6 1
    12    5   49 1
    13    5   50 1
    14    6   11 ar
    15    6    7 ar
    16    7    8 ar
    17    7   51 1
    18    8    9 ar
    19    8   52 1
    20    9   10 ar
    21    9   12 1
    22   10   11 ar
    23   10   53 1
    24   11   54 1
    25   12   55 1
    26   13   14 am
    27   13   56 1
    28   14   15 2
    29   14   16 1
    30   16   17 1
    31   16   57 1
    32   16   58 1
    33   17   26 2
    34   17   18 1
    35   18   23 ar
    36   18   19 ar
    37   19   20 ar
    38   19   59 1
    39   20   21 ar
    40   20   60 1
    41   21   22 ar
    42   21   61 1
    43   22   23 ar
    44   22   33 1
    45   23   24 1
    46   24   25 1
    47   24   26 1
    48   26   27 1
    49   27   32 ar
    50   27   28 ar
    51   28   29 ar
    52   28   62 1
    53   29   30 ar
    54   29   63 1
    55   30   31 ar
    56   30   64 1
    57   31   32 ar
    58   31   65 1
    59   32   66 1
    60   33   34 1
    61   34   35 1
    62   34   67 1
    63   34   68 1
    64   35   36 1
    65   35   69 1
    66   35   70 1
    67   36   37 1
    68   36   71 1
    69   36   72 1
    70   37   38 1
    71   37   73 1
    72   37   74 1
    73   38   43 1
    74   38   39 1
    75   38   85 1
    76   39   40 1
    77   39   75 1
    78   39   76 1
    79   40   41 1
    80   40   77 1
    81   40   78 1
    82   41   42 1
    83   41   79 1
    84   41   80 1
    85   42   43 1
    86   42   81 1
    87   42   82 1
    88   43   83 1
    89   43   84 1
@<TRIPOS>MOLECULE
CHEMBL328388
   66    70     0     0     0
SMALL
USER_CHARGES

@<TRIPOS>ATOM
      1 C1         -0.7461    1.3979    1.0872 C.3       1 <0>        -0.1490
      2 C2         -0.4248    0.0145    0.5182 C.3       1 <0>         0.2861
      3 C3         -1.5601   -0.9301    0.8243 C.ar      1 <0>        -0.0905
      4 C4         -2.8511   -0.5021    0.5433 C.ar      1 <0>        -0.0996
      5 C5         -3.9314   -1.3221    0.7903 C.ar      1 <0>        -0.1475
      6 C6         -3.7259   -2.5867    1.3233 C.ar      1 <0>         0.1125
      7 C7         -2.4393   -3.0107    1.6067 C.ar      1 <0>        -0.1477
      8 C8         -1.3528   -2.1806    1.3627 C.ar      1 <0>        -0.0402
      9 C9          0.0149   -2.6992    1.7216 C.3       1 <0>        -0.1039
     10 C10         1.1026   -1.9236    0.9801 C.3       1 <0>         0.1373
     11 N1          0.8128   -0.4873    1.1248 N.pl3     1 <0>        -0.6655
     12 C11         1.6813    0.3631    1.8125 C.ar      1 <0>         0.1919
     13 C12         2.6500    1.0780    1.1183 C.ar      1 <0>        -0.1386
     14 C13         3.5087    1.9190    1.7986 C.ar      1 <0>        -0.0951
     15 C14         3.4071    2.0524    3.1705 C.ar      1 <0>        -0.1473
     16 C15         2.4415    1.3414    3.8691 C.ar      1 <0>         0.1156
     17 C16         1.5745    0.4999    3.1895 C.ar      1 <0>        -0.1495
     18 O1          2.3429    1.4737    5.2180 O.3       1 <0>        -0.4986
     19 O2         -4.7834   -3.4050    1.5663 O.3       1 <0>        -0.4975
     20 C17        -0.2464    0.1154   -0.9748 C.ar      1 <0>        -0.1011
     21 C18         0.9548   -0.2518   -1.5527 C.ar      1 <0>        -0.0651
     22 C19         1.1211   -0.1598   -2.9210 C.ar      1 <0>        -0.1418
     23 C20         0.0813    0.3012   -3.7155 C.ar      1 <0>         0.1092
     24 C21        -1.1231    0.6686   -3.1332 C.ar      1 <0>        -0.1995
     25 C22        -1.2861    0.5698   -1.7650 C.ar      1 <0>        -0.0745
     26 O3          0.2425    0.3930   -5.0617 O.3       1 <0>        -0.3291
     27 C23        -0.8704    0.8758   -5.8169 C.3       1 <0>         0.0278
     28 C24        -0.5031    0.9092   -7.3018 C.3       1 <0>         0.0037
     29 N2         -0.2735   -0.4605   -7.7804 N.4       1 <0>        -0.3955
     30 C25        -1.5508   -1.2186   -7.7955 C.3       1 <0>        -0.0102
     31 C26        -1.2730   -2.3612   -8.8044 C.3       1 <0>        -0.1447
     32 C27        -0.4089   -1.6677   -9.8827 C.3       1 <0>        -0.1450
     33 C28         0.1989   -0.4386   -9.1818 C.3       1 <0>        -0.0087
     34 H1          0.0853    2.0744    0.8888 H         1 <0>         0.0690
     35 H2         -1.6494    1.7842    0.6150 H         1 <0>         0.0685
     36 H3         -0.9030    1.3208    2.1631 H         1 <0>         0.0697
     37 H4         -3.0101    0.4820    0.1278 H         1 <0>         0.1264
     38 H5         -4.9326   -0.9818    0.5705 H         1 <0>         0.1301
     39 H6         -2.2789   -3.9951    2.0211 H         1 <0>         0.1293
     40 H7          0.1680   -2.5932    2.7956 H         1 <0>         0.0835
     41 H8          0.0804   -3.7536    1.4533 H         1 <0>         0.0830
     42 H9          2.0769   -2.1487    1.4139 H         1 <0>         0.0829
     43 H10         1.0960   -2.1967   -0.0751 H         1 <0>         0.0633
     44 H11         2.7315    0.9756    0.0462 H         1 <0>         0.1225
     45 H12         4.2614    2.4733    1.2575 H         1 <0>         0.1281
     46 H13         4.0803    2.7105    3.6997 H         1 <0>         0.1298
     47 H14         0.8197   -0.0510    3.7311 H         1 <0>         0.1275
     48 H15         1.7455    2.1793    5.5013 H         1 <0>         0.3931
     49 H16        -5.0196   -3.9742    0.8211 H         1 <0>         0.3918
     50 H17         1.7640   -0.6105   -0.9338 H         1 <0>         0.1427
     51 H18         2.0598   -0.4460   -3.3719 H         1 <0>         0.1309
     52 H19        -1.9340    1.0277   -3.7496 H         1 <0>         0.1259
     53 H20        -2.2250    0.8515   -1.3117 H         1 <0>         0.1312
     54 H21        -1.7243    0.2148   -5.6687 H         1 <0>         0.0843
     55 H22        -1.1271    1.8813   -5.4834 H         1 <0>         0.1076
     56 H23        -1.3184    1.3600   -7.8677 H         1 <0>         0.1482
     57 H24         0.4035    1.4987   -7.4387 H         1 <0>         0.1411
     58 H25        -1.7699   -1.6229   -6.8073 H         1 <0>         0.1330
     59 H26        -2.3684   -0.5878   -8.1442 H         1 <0>         0.1348
     60 H27        -0.7193   -3.1703   -8.3281 H         1 <0>         0.0982
     61 H28        -2.2038   -2.7305   -9.2349 H         1 <0>         0.1173
     62 H29         0.3804   -2.3378  -10.2234 H         1 <0>         0.1057
     63 H30        -1.0301   -1.3558  -10.7223 H         1 <0>         0.1045
     64 H31        -0.1387    0.4738   -9.6733 H         1 <0>         0.1314
     65 H32         1.2871   -0.4967   -9.2077 H         1 <0>         0.1329
     66 H33         0.4017   -0.9262   -7.1928 H         1 <0>         0.4336
@<TRIPOS>BOND
     1    1    2 1
     2    1   34 1
     3    1   35 1
     4    1   36 1
     5    2   11 1
     6    2    3 1
     7    2   20 1
     8    3    8 ar
     9    3    4 ar
    10    4    5 ar
    11    4   37 1
    12    5    6 ar
    13    5   38 1
    14    6    7 ar
    15    6   19 1
    16    7    8 ar
    17    7   39 1
    18    8    9 1
    19    9   10 1
    20    9   40 1
    21    9   41 1
    22   10   11 1
    23   10   42 1
    24   10   43 1
    25   11   12 1
    26   12   17 ar
    27   12   13 ar
    28   13   14 ar
    29   13   44 1
    30   14   15 ar
    31   14   45 1
    32   15   16 ar
    33   15   46 1
    34   16   17 ar
    35   16   18 1
    36   17   47 1
    37   18   48 1
    38   19   49 1
    39   20   25 ar
    40   20   21 ar
    41   21   22 ar
    42   21   50 1
    43   22   23 ar
    44   22   51 1
    45   23   24 ar
    46   23   26 1
    47   24   25 ar
    48   24   52 1
    49   25   53 1
    50   26   27 1
    51   27   28 1
    52   27   54 1
    53   27   55 1
    54   28   29 1
    55   28   56 1
    56   28   57 1
    57   29   33 1
    58   29   30 1
    59   29   66 1
    60   30   31 1
    61   30   58 1
    62   30   59 1
    63   31   32 1
    64   31   60 1
    65   31   61 1
    66   32   33 1
    67   32   62 1
    68   32   63 1
    69   33   64 1
    70   33   65 1
@<TRIPOS>MOLECULE
CHEMBL328388__1
   66    70     0     0     0
SMALL
USER_CHARGES

@<TRIPOS>ATOM
      1 C1          0.8833    1.5152   -0.2790 C.3       1 <0>        -0.1484
      2 C2          0.4456    0.0519   -0.1889 C.3       1 <0>         0.2865
      3 C3          1.1281   -0.7437   -1.2735 C.ar      1 <0>        -0.0910
      4 C4          1.0969   -0.2351   -2.5655 C.ar      1 <0>        -0.0996
      5 C5          1.6931   -0.9193   -3.6033 C.ar      1 <0>        -0.1469
      6 C6          2.3285   -2.1274   -3.3539 C.ar      1 <0>         0.1131
      7 C7          2.3624   -2.6314   -2.0654 C.ar      1 <0>        -0.1473
      8 C8          1.7664   -1.9375   -1.0202 C.ar      1 <0>        -0.0410
      9 C9          1.8670   -2.5336    0.3592 C.3       1 <0>        -0.1030
     10 C10         0.7985   -1.9511    1.2828 C.3       1 <0>         0.1372
     11 N1          0.8128   -0.4873    1.1248 N.pl3     1 <0>        -0.6661
     12 C11         1.1624    0.3541    2.1833 C.ar      1 <0>         0.1930
     13 C12         0.1782    0.8611    3.0234 C.ar      1 <0>        -0.1387
     14 C13         0.5242    1.6931    4.0701 C.ar      1 <0>        -0.0957
     15 C14         1.8490    2.0233    4.2852 C.ar      1 <0>        -0.1475
     16 C15         2.8361    1.5196    3.4499 C.ar      1 <0>         0.1156
     17 C16         2.4937    0.6804    2.4012 C.ar      1 <0>        -0.1495
     18 O1          4.1382    1.8452    3.6629 O.3       1 <0>        -0.4992
     19 O2          2.9145   -2.8129   -4.3706 O.3       1 <0>        -0.4996
     20 C17        -1.0481   -0.0367   -0.3677 C.ar      1 <0>        -0.1011
     21 C18        -1.8336   -0.5656    0.6397 C.ar      1 <0>        -0.0652
     22 C19        -3.2030   -0.6483    0.4781 C.ar      1 <0>        -0.1419
     23 C20        -3.7901   -0.1997   -0.6961 C.ar      1 <0>         0.1093
     24 C21        -2.9998    0.3310   -1.7052 C.ar      1 <0>        -0.1991
     25 C22        -1.6313    0.4163   -1.5366 C.ar      1 <0>        -0.0740
     26 O3         -5.1371   -0.2804   -0.8577 O.3       1 <0>        -0.3292
     27 C23        -5.6723    0.2006   -2.0922 C.3       1 <0>         0.0276
     28 C24        -7.1926    0.0287   -2.0903 C.3       1 <0>         0.0037
     29 N2         -7.7809    0.8851   -1.0519 N.4       1 <0>        -0.3955
     30 C25        -7.6326    2.3157   -1.4230 C.3       1 <0>        -0.0103
     31 C26        -8.7379    3.0141   -0.5917 C.3       1 <0>        -0.1446
     32 C27        -9.8999    1.9954   -0.6365 C.3       1 <0>        -0.1450
     33 C28        -9.2367    0.6425   -0.9551 C.3       1 <0>        -0.0088
     34 H1          1.9661    1.5779   -0.1706 H         1 <0>         0.0705
     35 H2          0.5908    1.9230   -1.2466 H         1 <0>         0.0682
     36 H3          0.4048    2.0871    0.5160 H         1 <0>         0.0678
     37 H4          0.6009    0.7046   -2.7589 H         1 <0>         0.1261
     38 H5          1.6654   -0.5172   -4.6052 H         1 <0>         0.1302
     39 H6          2.8564   -3.5719   -1.8710 H         1 <0>         0.1293
     40 H7          1.7341   -3.6135    0.2936 H         1 <0>         0.0834
     41 H8          2.8530   -2.3190    0.7714 H         1 <0>         0.0823
     42 H9         -0.1807   -2.3423    1.0068 H         1 <0>         0.0640
     43 H10         1.0226   -2.2125    2.3170 H         1 <0>         0.0824
     44 H11        -0.8577    0.6047    2.8575 H         1 <0>         0.1223
     45 H12        -0.2420    2.0868    4.7216 H         1 <0>         0.1276
     46 H13         2.1163    2.6744    5.1044 H         1 <0>         0.1296
     47 H14         3.2610    0.2842    1.7526 H         1 <0>         0.1275
     48 H15         4.6041    1.2373    4.2531 H         1 <0>         0.3937
     49 H16         3.8420   -2.5823   -4.5173 H         1 <0>         0.3944
     50 H17        -1.3761   -0.9148    1.5536 H         1 <0>         0.1423
     51 H18        -3.8161   -1.0622    1.2650 H         1 <0>         0.1309
     52 H19        -3.4545    0.6809   -2.6203 H         1 <0>         0.1261
     53 H20        -1.0161    0.8335   -2.3201 H         1 <0>         0.1312
     54 H21        -5.4261    1.2560   -2.2084 H         1 <0>         0.0846
     55 H22        -5.2437   -0.3656   -2.9192 H         1 <0>         0.1075
     56 H23        -7.5916    0.3124   -3.0642 H         1 <0>         0.1482
     57 H24        -7.4403   -1.0128   -1.8857 H         1 <0>         0.1410
     58 H25        -6.6471    2.6861   -1.1409 H         1 <0>         0.1332
     59 H26        -7.8067    2.4564   -2.4898 H         1 <0>         0.1347
     60 H27        -8.4055    3.1751    0.4338 H         1 <0>         0.0983
     61 H28        -9.0323    3.9556   -1.0552 H         1 <0>         0.1173
     62 H29       -10.4026    1.9521    0.3297 H         1 <0>         0.1056
     63 H30       -10.6080    2.2635   -1.4206 H         1 <0>         0.1044
     64 H31        -9.6130    0.2586   -1.9033 H         1 <0>         0.1313
     65 H32        -9.4422   -0.0691   -0.1554 H         1 <0>         0.1328
     66 H33        -7.3388    0.7078   -0.1624 H         1 <0>         0.4335
@<TRIPOS>BOND
     1    1    2 1
     2    1   34 1
     3    1   35 1
     4    1   36 1
     5    2   11 1
     6    2    3 1
     7    2   20 1
     8    3    8 ar
     9    3    4 ar
    10    4    5 ar
    11    4   37 1
    12    5    6 ar
    13    5   38 1
    14    6    7 ar
    15    6   19 1
    16    7    8 ar
    17    7   39 1
    18    8    9 1
    19    9   10 1
    20    9   40 1
    21    9   41 1
    22   10   11 1
    23   10   42 1
    24   10   43 1
    25   11   12 1
    26   12   17 ar
    27   12   13 ar
    28   13   14 ar
    29   13   44 1
    30   14   15 ar
    31   14   45 1
    32   15   16 ar
    33   15   46 1
    34   16   17 ar
    35   16   18 1
    36   17   47 1
    37   18   48 1
    38   19   49 1
    39   20   25 ar
    40   20   21 ar
    41   21   22 ar
    42   21   50 1
    43   22   23 ar
    44   22   51 1
    45   23   24 ar
    46   23   26 1
    47   24   25 ar
    48   24   52 1
    49   25   53 1
    50   26   27 1
    51   27   28 1
    52   27   54 1
    53   27   55 1
    54   28   29 1
    55   28   56 1
    56   28   57 1
    57   29   33 1
    58   29   30 1
    59   29   66 1
    60   30   31 1
    61   30   58 1
    62   30   59 1
    63   31   32 1
    64   31   60 1
    65   31   61 1
    66   32   33 1
    67   32   62 1
    68   32   63 1
    69   33   64 1
    70   33   65 1
@<TRIPOS>MOLECULE
CHEMBL417694
   63    67     0     0     0
SMALL
USER_CHARGES

@<TRIPOS>ATOM
      1 C1         -0.2283   -0.5815    1.5233 C.ar      1 <0>        -0.0668
      2 C2         -0.2130    0.7727    1.7846 C.ar      1 <0>        -0.1430
      3 C3          0.4083    1.6447    0.9013 C.ar      1 <0>         0.1166
      4 C4          1.0157    1.1578   -0.2478 C.ar      1 <0>        -0.1440
      5 C5          1.0040   -0.1952   -0.5158 C.ar      1 <0>        -0.0823
      6 C6          0.3815   -1.0743    0.3699 C.ar      1 <0>        -0.0419
      7 C7          0.3671   -2.5286    0.0857 C.2       1 <0>        -0.2180
      8 C8          1.0441   -3.4339    0.9421 C.2       1 <0>         0.4336
      9 O1          1.6506   -3.0425    1.9263 O.2       1 <0>        -0.4497
     10 C9          0.9865   -4.8670    0.5974 C.ar      1 <0>        -0.2228
     11 C10         1.6249   -5.8238    1.3875 C.ar      1 <0>        -0.0106
     12 C11         1.5543   -7.1443    1.0444 C.ar      1 <0>        -0.1681
     13 C12         0.8487   -7.5397   -0.0892 C.ar      1 <0>         0.1742
     14 C13         0.2099   -6.6016   -0.8831 C.ar      1 <0>        -0.1715
     15 C14         0.2727   -5.2565   -0.5474 C.ar      1 <0>         0.1593
     16 O2         -0.3447   -4.3286   -1.3090 O.3       1 <0>        -0.2135
     17 C15        -0.3127   -3.0209   -1.0168 C.2       1 <0>         0.1205
     18 S1         -1.1570   -1.8906   -2.0723 S.3       1 <0>         0.1317
     19 C16        -1.7401   -2.8974   -3.3956 C.ar      1 <0>        -0.1967
     20 C17        -3.0322   -3.4061   -3.3646 C.ar      1 <0>        -0.0113
     21 C18        -3.4882   -4.1950   -4.4019 C.ar      1 <0>        -0.1511
     22 C19        -2.6561   -4.4799   -5.4748 C.ar      1 <0>         0.1537
     23 C20        -1.3652   -3.9726   -5.5065 C.ar      1 <0>        -0.2129
     24 C21        -0.9097   -3.1781   -4.4732 C.ar      1 <0>        -0.0109
     25 O3         -3.1059   -5.2573   -6.4958 O.3       1 <0>        -0.3245
     26 C22        -2.1959   -5.5101   -7.5682 C.3       1 <0>         0.0228
     27 C23        -2.8747   -6.3959   -8.6149 C.3       1 <0>        -0.0008
     28 N1         -4.0161   -5.6781   -9.1978 N.4       1 <0>        -0.3846
     29 C24        -4.7590   -6.5813  -10.0848 C.3       1 <0>        -0.0071
     30 C25        -5.9948   -5.8633  -10.6313 C.3       1 <0>        -0.1467
     31 C26        -5.5533   -4.6243  -11.4156 C.3       1 <0>        -0.1392
     32 C27        -4.7165   -3.7249  -10.5012 C.3       1 <0>        -0.1455
     33 C28        -3.5281   -4.5221   -9.9595 C.3       1 <0>        -0.0134
     34 O4          0.7869   -8.8552   -0.4191 O.3       1 <0>        -0.4909
     35 O5          0.4214    2.9788    1.1621 O.3       1 <0>        -0.4999
     36 H1         -0.7081   -1.2599    2.2132 H         1 <0>         0.1268
     37 H2         -0.6854    1.1551    2.6774 H         1 <0>         0.1335
     38 H3          1.4979    1.8392   -0.9330 H         1 <0>         0.1329
     39 H4          1.4762   -0.5733   -1.4104 H         1 <0>         0.1278
     40 H5          2.1734   -5.5212    2.2672 H         1 <0>         0.1513
     41 H6          2.0486   -7.8852    1.6553 H         1 <0>         0.1464
     42 H7         -0.3350   -6.9159   -1.7609 H         1 <0>         0.1449
     43 H8         -3.6798   -3.1850   -2.5291 H         1 <0>         0.1480
     44 H9         -4.4928   -4.5906   -4.3780 H         1 <0>         0.1430
     45 H10        -0.7180   -4.1952   -6.3419 H         1 <0>         0.1367
     46 H11         0.0935   -2.7790   -4.5004 H         1 <0>         0.1420
     47 H12        -1.9028   -4.5656   -8.0264 H         1 <0>         0.0898
     48 H13        -1.3112   -6.0166   -7.1822 H         1 <0>         0.1125
     49 H14        -2.1606   -6.6420   -9.4008 H         1 <0>         0.1508
     50 H15        -3.2254   -7.3133   -8.1422 H         1 <0>         0.1436
     51 H16        -4.1188   -6.8837  -10.9135 H         1 <0>         0.1297
     52 H17        -5.0697   -7.4641   -9.5260 H         1 <0>         0.1313
     53 H18        -6.5440   -6.5350  -11.2911 H         1 <0>         0.1136
     54 H19        -6.6358   -5.5607   -9.8034 H         1 <0>         0.0881
     55 H20        -4.9543   -4.9301  -12.2734 H         1 <0>         0.0824
     56 H21        -6.4318   -4.0782  -11.7592 H         1 <0>         0.0952
     57 H22        -4.3520   -2.8681  -11.0680 H         1 <0>         0.1128
     58 H23        -5.3310   -3.3778   -9.6706 H         1 <0>         0.0879
     59 H24        -2.9301   -3.8847   -9.3082 H         1 <0>         0.1268
     60 H25        -2.9141   -4.8684  -10.7909 H         1 <0>         0.1310
     61 H26         0.0367   -9.3238   -0.0283 H         1 <0>         0.4029
     62 H27         1.1846    3.2710    1.6790 H         1 <0>         0.3949
     63 H28        -4.6249   -5.3598   -8.4587 H         1 <0>         0.4290
@<TRIPOS>BOND
     1    1    6 ar
     2    1    2 ar
     3    1   36 1
     4    2    3 ar
     5    2   37 1
     6    3    4 ar
     7    3   35 1
     8    4    5 ar
     9    4   38 1
    10    5    6 ar
    11    5   39 1
    12    6    7 1
    13    7   17 2
    14    7    8 1
    15    8    9 2
    16    8   10 1
    17   10   15 ar
    18   10   11 ar
    19   11   12 ar
    20   11   40 1
    21   12   13 ar
    22   12   41 1
    23   13   14 ar
    24   13   34 1
    25   14   15 ar
    26   14   42 1
    27   15   16 1
    28   16   17 1
    29   17   18 1
    30   18   19 1
    31   19   24 ar
    32   19   20 ar
    33   20   21 ar
    34   20   43 1
    35   21   22 ar
    36   21   44 1
    37   22   23 ar
    38   22   25 1
    39   23   24 ar
    40   23   45 1
    41   24   46 1
    42   25   26 1
    43   26   27 1
    44   26   47 1
    45   26   48 1
    46   27   28 1
    47   27   49 1
    48   27   50 1
    49   28   33 1
    50   28   29 1
    51   28   63 1
    52   29   30 1
    53   29   51 1
    54   29   52 1
    55   30   31 1
    56   30   53 1
    57   30   54 1
    58   31   32 1
    59   31   55 1
    60   31   56 1
    61   32   33 1
    62   32   57 1
    63   32   58 1
    64   33   59 1
    65   33   60 1
    66   34   61 1
    67   35   62 1
@<TRIPOS>MOLECULE
CHEMBL191711
   68    73     0     0     0
SMALL
USER_CHARGES

@<TRIPOS>ATOM
      1 C1         -0.5277    2.6487   -0.2936 C.ar      1 <0>        -0.0541
      2 C2          0.8186    2.9427   -0.1945 C.ar      1 <0>        -0.2063
      3 C3          1.7431    1.9196   -0.0249 C.ar      1 <0>         0.2400
      4 C4          1.3121    0.6017    0.0453 C.ar      1 <0>        -0.2246
      5 C5         -0.0392    0.3113   -0.0541 C.ar      1 <0>         0.1545
      6 C6         -0.9583    1.3376   -0.2240 C.ar      1 <0>        -0.2011
      7 O1         -0.4643   -0.9777    0.0137 O.3       1 <0>        -0.4995
      8 N1          3.1042    2.2165    0.0744 N.pl3     1 <0>        -0.6176
      9 C7          4.0960    1.1706    0.3749 C.3       1 <0>         0.1135
     10 C8          5.0179    1.0360   -0.8360 C.3       1 <0>        -0.1041
     11 C9          5.4877    2.3878   -1.3052 C.ar      1 <0>        -0.0467
     12 C10         6.6322    2.4338   -2.0907 C.ar      1 <0>        -0.1475
     13 C11         7.1131    3.6426   -2.5630 C.ar      1 <0>         0.1153
     14 C12         6.4448    4.8178   -2.2505 C.ar      1 <0>        -0.1454
     15 C13         5.3107    4.7703   -1.4681 C.ar      1 <0>        -0.0881
     16 C14         4.8327    3.5574   -0.9894 C.ar      1 <0>        -0.1012
     17 C15         3.6036    3.5815   -0.1226 C.3       1 <0>         0.2414
     18 C16         3.9498    4.1864    1.2136 C.ar      1 <0>        -0.1253
     19 C17         4.9826    3.6554    1.9644 C.ar      1 <0>        -0.0526
     20 C18         5.3025    4.2073    3.1893 C.ar      1 <0>        -0.1851
     21 C19         4.5856    5.2971    3.6668 C.ar      1 <0>         0.2017
     22 C20         3.5487    5.8280    2.9100 C.ar      1 <0>        -0.1830
     23 C21         3.2377    5.2747    1.6834 C.ar      1 <0>        -0.0568
     24 N2          4.9062    5.8575    4.9054 N.pl3     1 <0>        -0.6440
     25 C22         4.0810    6.9268    5.4882 C.3       1 <0>         0.1007
     26 C23         3.7331    6.5409    6.9297 C.3       1 <0>        -0.0225
     27 N3          4.9684    6.2565    7.6709 N.4       1 <0>        -0.3797
     28 C24         5.6362    5.0812    7.0975 C.3       1 <0>        -0.0221
     29 C25         6.0751    5.3908    5.6669 C.3       1 <0>         0.0993
     30 C26         4.6429    5.9940    9.0791 C.3       1 <0>         0.0266
     31 C27         5.9364    5.8206    9.8778 C.3       1 <0>        -0.2129
     32 C28         6.1917    4.4561   10.5212 C.3       1 <0>        -0.1683
     33 C29         5.8137    5.6547   11.3938 C.3       1 <0>        -0.1481
     34 O2          8.2345    3.6783   -3.3298 O.3       1 <0>        -0.4996
     35 H1         -1.2454    3.4456   -0.4212 H         1 <0>         0.1266
     36 H2          1.1525    3.9683   -0.2492 H         1 <0>         0.1205
     37 H3          2.0286   -0.1956    0.1767 H         1 <0>         0.1285
     38 H4         -2.0114    1.1111   -0.3015 H         1 <0>         0.1259
     39 H5         -0.6674   -1.2782    0.9101 H         1 <0>         0.3927
     40 H6          4.6778    1.4551    1.2516 H         1 <0>         0.0734
     41 H7          3.5889    0.2236    0.5595 H         1 <0>         0.0919
     42 H8          5.8825    0.4310   -0.5628 H         1 <0>         0.0878
     43 H9          4.4779    0.5436   -1.6447 H         1 <0>         0.0866
     44 H10         7.1514    1.5187   -2.3347 H         1 <0>         0.1299
     45 H11         6.8114    5.7649   -2.6180 H         1 <0>         0.1313
     46 H12         4.7898    5.6845   -1.2248 H         1 <0>         0.1260
     47 H13         2.8329    4.1836   -0.6038 H         1 <0>         0.1040
     48 H14         5.5393    2.8079    1.5927 H         1 <0>         0.1281
     49 H15         6.1090    3.7919    3.7753 H         1 <0>         0.1223
     50 H16         2.9891    6.6750    3.2786 H         1 <0>         0.1241
     51 H17         2.4346    5.6897    1.0925 H         1 <0>         0.1276
     52 H18         4.6387    7.8633    5.4841 H         1 <0>         0.0878
     53 H19         3.1651    7.0400    4.9082 H         1 <0>         0.1268
     54 H20         3.2034    7.3644    7.4086 H         1 <0>         0.1411
     55 H21         3.0993    5.6542    6.9257 H         1 <0>         0.1323
     56 H22         6.5088    4.8290    7.7001 H         1 <0>         0.1419
     57 H23         4.9448    4.2386    7.0885 H         1 <0>         0.1311
     58 H24         6.4770    4.4890    5.2050 H         1 <0>         0.1262
     59 H25         6.8376    6.1696    5.6812 H         1 <0>         0.0869
     60 H26         4.0760    6.8327    9.4834 H         1 <0>         0.1338
     61 H27         4.0468    5.0843    9.1509 H         1 <0>         0.1285
     62 H28         6.7994    6.3685    9.4996 H         1 <0>         0.1249
     63 H29         5.4383    3.6821   10.3755 H         1 <0>         0.1057
     64 H30         7.2230    4.1061   10.5663 H         1 <0>         0.1105
     65 H31         6.5963    6.0932   12.0130 H         1 <0>         0.1127
     66 H32         4.8116    5.6691   11.8222 H         1 <0>         0.1077
     67 H33         8.0648    3.6012   -4.2787 H         1 <0>         0.3953
     68 H34         5.5847    7.0533    7.6135 H         1 <0>         0.4228
@<TRIPOS>BOND
     1    1    6 ar
     2    1    2 ar
     3    1   35 1
     4    2    3 ar
     5    2   36 1
     6    3    4 ar
     7    3    8 1
     8    4    5 ar
     9    4   37 1
    10    5    6 ar
    11    5    7 1
    12    6   38 1
    13    7   39 1
    14    8   17 1
    15    8    9 1
    16    9   10 1
    17    9   40 1
    18    9   41 1
    19   10   11 1
    20   10   42 1
    21   10   43 1
    22   11   16 ar
    23   11   12 ar
    24   12   13 ar
    25   12   44 1
    26   13   14 ar
    27   13   34 1
    28   14   15 ar
    29   14   45 1
    30   15   16 ar
    31   15   46 1
    32   16   17 1
    33   17   18 1
    34   17   47 1
    35   18   23 ar
    36   18   19 ar
    37   19   20 ar
    38   19   48 1
    39   20   21 ar
    40   20   49 1
    41   21   22 ar
    42   21   24 1
    43   22   23 ar
    44   22   50 1
    45   23   51 1
    46   24   29 1
    47   24   25 1
    48   25   26 1
    49   25   52 1
    50   25   53 1
    51   26   27 1
    52   26   54 1
    53   26   55 1
    54   27   28 1
    55   27   30 1
    56   27   68 1
    57   28   29 1
    58   28   56 1
    59   28   57 1
    60   29   58 1
    61   29   59 1
    62   30   31 1
    63   30   60 1
    64   30   61 1
    65   31   33 1
    66   31   32 1
    67   31   62 1
    68   32   33 1
    69   32   63 1
    70   32   64 1
    71   33   65 1
    72   33   66 1
    73   34   67 1
@<TRIPOS>MOLECULE
CHEMBL191711__1
   68    73     0     0     0
SMALL
USER_CHARGES

@<TRIPOS>ATOM
      1 C1          7.0856    2.9096    2.2778 C.ar      1 <0>        -0.0533
      2 C2          5.9422    3.1487    1.5400 C.ar      1 <0>        -0.2073
      3 C3          5.2259    4.3241    1.7288 C.ar      1 <0>         0.2404
      4 C4          5.6605    5.2576    2.6601 C.ar      1 <0>        -0.2252
      5 C5          6.8075    5.0136    3.3983 C.ar      1 <0>         0.1546
      6 C6          7.5194    3.8376    3.2050 C.ar      1 <0>        -0.2013
      7 O1          7.2358    5.9254    4.3104 O.3       1 <0>        -0.5017
      8 N1          4.0706    4.5665    0.9824 N.pl3     1 <0>        -0.6180
      9 C7          3.2308    5.7494    1.2339 C.3       1 <0>         0.1130
     10 C8          1.8669    5.2620    1.7204 C.3       1 <0>        -0.1028
     11 C9          1.3455    4.1589    0.8374 C.ar      1 <0>        -0.0469
     12 C10        -0.0194    3.9032    0.8662 C.ar      1 <0>        -0.1476
     13 C11        -0.5630    2.8967    0.0871 C.ar      1 <0>         0.1149
     14 C12         0.2629    2.1365   -0.7286 C.ar      1 <0>        -0.1454
     15 C13         1.6168    2.3946   -0.7588 C.ar      1 <0>        -0.0885
     16 C14         2.1604    3.4084    0.0193 C.ar      1 <0>        -0.1005
     17 C15         3.6486    3.6561   -0.0873 C.3       1 <0>         0.2403
     18 C16         3.9642    4.2739   -1.4251 C.ar      1 <0>        -0.1254
     19 C17         4.9012    3.6841   -2.2536 C.ar      1 <0>        -0.0559
     20 C18         5.1928    4.2477   -3.4802 C.ar      1 <0>        -0.1837
     21 C19         4.5436    5.4084   -3.8815 C.ar      1 <0>         0.2019
     22 C20         3.6029    5.9983   -3.0468 C.ar      1 <0>        -0.1850
     23 C21         3.3120    5.4263   -1.8239 C.ar      1 <0>        -0.0530
     24 N2          4.8364    5.9813   -5.1212 N.pl3     1 <0>        -0.6440
     25 C22         4.2601    7.2775   -5.5105 C.3       1 <0>         0.1009
     26 C23         5.3933    8.1860   -5.9988 C.3       1 <0>        -0.0226
     27 N3          6.1368    7.5077   -7.0680 N.4       1 <0>        -0.3796
     28 C24         6.7942    6.3072   -6.5361 C.3       1 <0>        -0.0224
     29 C25         5.7348    5.3084   -6.0721 C.3       1 <0>         0.0995
     30 C26         7.1522    8.4200   -7.6107 C.3       1 <0>         0.0265
     31 C27         7.8434    7.7609   -8.8060 C.3       1 <0>        -0.2129
     32 C28         9.3392    7.4645   -8.6818 C.3       1 <0>        -0.1682
     33 C29         8.8570    8.5999   -9.5868 C.3       1 <0>        -0.1482
     34 O2         -1.8998    2.6544    0.1205 O.3       1 <0>        -0.4975
     35 H1          7.6388    1.9935    2.1327 H         1 <0>         0.1269
     36 H2          5.6053    2.4217    0.8159 H         1 <0>         0.1213
     37 H3          5.1058    6.1723    2.8087 H         1 <0>         0.1282
     38 H4          8.4134    3.6476    3.7804 H         1 <0>         0.1259
     39 H5          6.8745    5.7939    5.1976 H         1 <0>         0.3948
     40 H6          3.6932    6.3742    1.9980 H         1 <0>         0.0922
     41 H7          3.1116    6.3196    0.3127 H         1 <0>         0.0731
     42 H8          1.9621    4.8899    2.7405 H         1 <0>         0.0862
     43 H9          1.1633    6.0944    1.7075 H         1 <0>         0.0876
     44 H10        -0.6617    4.4943    1.5021 H         1 <0>         0.1300
     45 H11        -0.1528    1.3469   -1.3370 H         1 <0>         0.1313
     46 H12         2.2604    1.8027   -1.3926 H         1 <0>         0.1260
     47 H13         4.1822    2.7105    0.0096 H         1 <0>         0.1050
     48 H14         5.4058    2.7819   -1.9409 H         1 <0>         0.1278
     49 H15         5.9249    3.7867   -4.1267 H         1 <0>         0.1240
     50 H16         3.0967    6.9009   -3.3555 H         1 <0>         0.1225
     51 H17         2.5775    5.8820   -1.1763 H         1 <0>         0.1282
     52 H18         3.5368    7.1307   -6.3127 H         1 <0>         0.0877
     53 H19         3.7699    7.7336   -4.6504 H         1 <0>         0.1261
     54 H20         4.9739    9.1164   -6.3816 H         1 <0>         0.1410
     55 H21         6.0666    8.4045   -5.1701 H         1 <0>         0.1324
     56 H22         7.4071    5.8533   -7.3148 H         1 <0>         0.1420
     57 H23         7.4252    6.5826   -5.6911 H         1 <0>         0.1314
     58 H24         6.2192    4.4632   -5.5831 H         1 <0>         0.1268
     59 H25         5.1630    4.9594   -6.9320 H         1 <0>         0.0868
     60 H26         6.6744    9.3455   -7.9322 H         1 <0>         0.1337
     61 H27         7.8909    8.6411   -6.8403 H         1 <0>         0.1286
     62 H28         7.2349    7.0537   -9.3696 H         1 <0>         0.1248
     63 H29         9.8309    7.7390   -7.7485 H         1 <0>         0.1059
     64 H30         9.7152    6.5619   -9.1637 H         1 <0>         0.1106
     65 H31         8.9156    8.4444  -10.6641 H         1 <0>         0.1127
     66 H32         9.0313    9.6215   -9.2489 H         1 <0>         0.1077
     67 H33        -2.4075    3.1598   -0.5291 H         1 <0>         0.3929
     68 H34         5.4990    7.2424   -7.8035 H         1 <0>         0.4226
@<TRIPOS>BOND
     1    1    6 ar
     2    1    2 ar
     3    1   35 1
     4    2    3 ar
     5    2   36 1
     6    3    4 ar
     7    3    8 1
     8    4    5 ar
     9    4   37 1
    10    5    6 ar
    11    5    7 1
    12    6   38 1
    13    7   39 1
    14    8   17 1
    15    8    9 1
    16    9   10 1
    17    9   40 1
    18    9   41 1
    19   10   11 1
    20   10   42 1
    21   10   43 1
    22   11   16 ar
    23   11   12 ar
    24   12   13 ar
    25   12   44 1
    26   13   14 ar
    27   13   34 1
    28   14   15 ar
    29   14   45 1
    30   15   16 ar
    31   15   46 1
    32   16   17 1
    33   17   18 1
    34   17   47 1
    35   18   23 ar
    36   18   19 ar
    37   19   20 ar
    38   19   48 1
    39   20   21 ar
    40   20   49 1
    41   21   22 ar
    42   21   24 1
    43   22   23 ar
    44   22   50 1
    45   23   51 1
    46   24   29 1
    47   24   25 1
    48   25   26 1
    49   25   52 1
    50   25   53 1
    51   26   27 1
    52   26   54 1
    53   26   55 1
    54   27   28 1
    55   27   30 1
    56   27   68 1
    57   28   29 1
    58   28   56 1
    59   28   57 1
    60   29   58 1
    61   29   59 1
    62   30   31 1
    63   30   60 1
    64   30   61 1
    65   31   33 1
    66   31   32 1
    67   31   62 1
    68   32   33 1
    69   32   63 1
    70   32   64 1
    71   33   65 1
    72   33   66 1
    73   34   67 1
@<TRIPOS>MOLECULE
CHEMBL92027
   60    64     0     0     0
SMALL
USER_CHARGES

@<TRIPOS>ATOM
      1 C1          0.2547    0.7636   -0.6544 C.ar      1 <0>        -0.0986
      2 C2          1.3650    1.5869   -0.6134 C.ar      1 <0>        -0.1161
      3 C3          2.5714    1.1017   -0.1439 C.ar      1 <0>        -0.0604
      4 C4          2.6706   -0.2079    0.2852 C.ar      1 <0>        -0.1221
      5 C5          1.5584   -1.0358    0.2451 C.ar      1 <0>         0.1080
      6 C6          0.3486   -0.5462   -0.2261 C.ar      1 <0>        -0.1387
      7 O1          1.6534   -2.3243    0.6667 O.3       1 <0>        -0.4975
      8 C7          3.7793    2.0017   -0.1006 C.3       1 <0>        -0.0639
      9 H1          4.6832    1.4050    0.0222 H         1 <0>         0.1393
     10 C8          3.6481    3.0006    1.0612 C.3       1 <0>         0.1567
     11 H2          4.4598    3.7264    1.0114 H         1 <0>         0.0934
     12 O2          2.4026    3.6733    0.9557 O.3       1 <0>        -0.3032
     13 C9          2.0729    4.4053   -0.1342 C.ar      1 <0>         0.1266
     14 C10         1.1161    5.4049    0.0258 C.ar      1 <0>        -0.1163
     15 C11         0.7210    6.1784   -1.0460 C.ar      1 <0>        -0.1073
     16 C12         1.2740    5.9681   -2.3007 C.ar      1 <0>         0.0922
     17 C13         2.2310    4.9810   -2.4707 C.ar      1 <0>        -0.0898
     18 C14         2.6342    4.2068   -1.3907 C.ar      1 <0>        -0.1469
     19 S1          3.8825    2.9772   -1.6342 S.3       1 <0>        -0.0894
     20 O3          0.8786    6.7264   -3.3579 O.3       1 <0>        -0.4926
     21 C15         3.7136    2.2604    2.3722 C.ar      1 <0>        -0.1287
     22 C16         2.5951    1.6029    2.8502 C.ar      1 <0>        -0.0370
     23 C17         2.6525    0.9240    4.0520 C.ar      1 <0>        -0.1553
     24 C18         3.8338    0.9019    4.7792 C.ar      1 <0>         0.1473
     25 C19         4.9547    1.5621    4.2972 C.ar      1 <0>        -0.2132
     26 C20         4.8937    2.2352    3.0923 C.ar      1 <0>        -0.0575
     27 O4          3.8926    0.2351    5.9619 O.3       1 <0>        -0.2948
     28 C21         5.1413    0.2549    6.6563 C.3       1 <0>         0.0654
     29 C22         5.0148   -0.5425    7.9559 C.3       1 <0>         0.0539
     30 N1          4.7318   -1.9493    7.6416 N.3       1 <0>        -0.5301
     31 C23         4.1576   -2.6435    8.8034 C.3       1 <0>         0.0183
     32 C24         3.8234   -4.0863    8.4151 C.3       1 <0>         0.0630
     33 O5          5.0047   -4.7297    7.9294 O.3       1 <0>        -0.3849
     34 C25         5.5901   -4.0803    6.7976 C.3       1 <0>         0.0639
     35 C26         5.9421   -2.6375    7.1695 C.3       1 <0>         0.0141
     36 H3         -0.6877    1.1463   -1.0174 H         1 <0>         0.1281
     37 H4          1.2897    2.6107   -0.9491 H         1 <0>         0.1289
     38 H5          3.6134   -0.5867    0.6513 H         1 <0>         0.1273
     39 H6         -0.5189   -1.1888   -0.2581 H         1 <0>         0.1297
     40 H7          1.4639   -2.4454    1.6072 H         1 <0>         0.3912
     41 H8          0.6789    5.5758    0.9985 H         1 <0>         0.1411
     42 H9         -0.0218    6.9502   -0.9078 H         1 <0>         0.1405
     43 H10         2.6643    4.8129   -3.4456 H         1 <0>         0.1386
     44 H11         1.4002    7.5313   -3.4816 H         1 <0>         0.3917
     45 H12         1.6758    1.6204    2.2838 H         1 <0>         0.1313
     46 H13         1.7784    0.4112    4.4253 H         1 <0>         0.1319
     47 H14         5.8755    1.5464    4.8614 H         1 <0>         0.1299
     48 H15         5.7673    2.7455    2.7145 H         1 <0>         0.1276
     49 H16         5.9129   -0.1921    6.0294 H         1 <0>         0.0632
     50 H17         5.4125    1.2851    6.8871 H         1 <0>         0.0683
     51 H18         5.9479   -0.4759    8.5154 H         1 <0>         0.0621
     52 H19         4.2016   -0.1335    8.5555 H         1 <0>         0.0887
     53 H20         4.8792   -2.6443    9.6203 H         1 <0>         0.0438
     54 H21         3.2487   -2.1321    9.1203 H         1 <0>         0.0887
     55 H22         3.4505   -4.6212    9.2886 H         1 <0>         0.0995
     56 H23         3.0620   -4.0862    7.6351 H         1 <0>         0.0615
     57 H24         6.4949   -4.6109    6.5013 H         1 <0>         0.0988
     58 H25         4.8801   -4.0801    5.9706 H         1 <0>         0.0610
     59 H26         6.3359   -2.1217    6.2938 H         1 <0>         0.0845
     60 H27         6.6923   -2.6381    7.9603 H         1 <0>         0.0446
@<TRIPOS>BOND
     1    1    6 ar
     2    1    2 ar
     3    1   36 1
     4    2    3 ar
     5    2   37 1
     6    3    4 ar
     7    3    8 1
     8    4    5 ar
     9    4   38 1
    10    5    6 ar
    11    5    7 1
    12    6   39 1
    13    7   40 1
    14    8    9 1
    15    8   19 1
    16    8   10 1
    17   10   11 1
    18   10   12 1
    19   10   21 1
    20   12   13 1
    21   13   18 ar
    22   13   14 ar
    23   14   15 ar
    24   14   41 1
    25   15   16 ar
    26   15   42 1
    27   16   17 ar
    28   16   20 1
    29   17   18 ar
    30   17   43 1
    31   18   19 1
    32   20   44 1
    33   21   26 ar
    34   21   22 ar
    35   22   23 ar
    36   22   45 1
    37   23   24 ar
    38   23   46 1
    39   24   25 ar
    40   24   27 1
    41   25   26 ar
    42   25   47 1
    43   26   48 1
    44   27   28 1
    45   28   29 1
    46   28   49 1
    47   28   50 1
    48   29   30 1
    49   29   51 1
    50   29   52 1
    51   30   35 1
    52   30   31 1
    53   31   32 1
    54   31   53 1
    55   31   54 1
    56   32   33 1
    57   32   55 1
    58   32   56 1
    59   33   34 1
    60   34   35 1
    61   34   57 1
    62   34   58 1
    63   35   59 1
    64   35   60 1
@<TRIPOS>MOLECULE
CHEMBL92027__1
   61    65     0     0     0
SMALL
USER_CHARGES

@<TRIPOS>ATOM
      1 C1          0.9048    0.7701   -0.9833 C.ar      1 <0>        -0.0955
      2 C2          2.0332    1.5621   -0.8754 C.ar      1 <0>        -0.1134
      3 C3          3.1887    1.0504   -0.3150 C.ar      1 <0>        -0.0635
      4 C4          3.2189   -0.2544    0.1384 C.ar      1 <0>        -0.1260
      5 C5          2.0883   -1.0509    0.0313 C.ar      1 <0>         0.1040
      6 C6          0.9297   -0.5348   -0.5312 C.ar      1 <0>        -0.1363
      7 O1          2.1155   -2.3346    0.4765 O.3       1 <0>        -0.4949
      8 C7          4.4167    1.9163   -0.1990 C.3       1 <0>        -0.0667
      9 H1          5.2919    1.2961   -0.0058 H         1 <0>         0.1385
     10 C8          4.2344    2.9357    0.9379 C.3       1 <0>         0.1497
     11 H2          5.0686    3.6373    0.9356 H         1 <0>         0.0970
     12 O2          3.0196    3.6418    0.7372 O.3       1 <0>        -0.3050
     13 C9          2.7879    4.3667   -0.3824 C.ar      1 <0>         0.1208
     14 C10         1.8520    5.3953   -0.3023 C.ar      1 <0>        -0.1137
     15 C11         1.5551    6.1638   -1.4089 C.ar      1 <0>        -0.1063
     16 C12         2.1875    5.9194   -2.6191 C.ar      1 <0>         0.0993
     17 C13         3.1247    4.9030   -2.7093 C.ar      1 <0>        -0.0898
     18 C14         3.4290    4.1338   -1.5939 C.ar      1 <0>        -0.1474
     19 S1          4.6546    2.8657   -1.7341 S.3       1 <0>        -0.0802
     20 O3          1.8889    6.6728   -3.7110 O.3       1 <0>        -0.4914
     21 C15         4.1871    2.2134    2.2597 C.ar      1 <0>        -0.1027
     22 C16         3.0193    1.5950    2.6668 C.ar      1 <0>        -0.0359
     23 C17         2.9732    0.9326    3.8782 C.ar      1 <0>        -0.1435
     24 C18         4.1000    0.8877    4.6863 C.ar      1 <0>         0.1234
     25 C19         5.2706    1.5086    4.2753 C.ar      1 <0>        -0.2028
     26 C20         5.3131    2.1653    3.0607 C.ar      1 <0>        -0.0578
     27 O4          4.0570    0.2371    5.8786 O.3       1 <0>        -0.3279
     28 C21         5.2546    0.2317    6.6583 C.3       1 <0>         0.0248
     29 C22         5.0148   -0.5425    7.9559 C.3       1 <0>        -0.0003
     30 N1          4.7318   -1.9493    7.6416 N.4       1 <0>        -0.3869
     31 C23         4.3578   -2.6606    8.8718 C.3       1 <0>        -0.0439
     32 C24         4.0632   -4.1260    8.5417 C.3       1 <0>         0.0355
     33 O5          5.2139   -4.7111    7.9258 O.3       1 <0>        -0.3555
     34 C25         5.6321   -4.0379    6.7350 C.3       1 <0>         0.0371
     35 C26         5.9296   -2.5724    7.0618 C.3       1 <0>        -0.0500
     36 H3          0.0019    1.1736   -1.4174 H         1 <0>         0.1310
     37 H4          2.0119    2.5821   -1.2299 H         1 <0>         0.1313
     38 H5          4.1221   -0.6539    0.5754 H         1 <0>         0.1249
     39 H6          0.0480   -1.1528   -0.6154 H         1 <0>         0.1316
     40 H7          1.8569   -2.4352    1.4029 H         1 <0>         0.3858
     41 H8          1.3536    5.5929    0.6352 H         1 <0>         0.1412
     42 H9          0.8276    6.9583   -1.3327 H         1 <0>         0.1430
     43 H10         3.6195    4.7083   -3.6493 H         1 <0>         0.1407
     44 H11         2.4412    7.4606   -3.8082 H         1 <0>         0.3948
     45 H12         2.1424    1.6302    2.0374 H         1 <0>         0.1392
     46 H13         2.0606    0.4503    4.1961 H         1 <0>         0.1348
     47 H14         6.1491    1.4751    4.9026 H         1 <0>         0.1318
     48 H15         6.2254    2.6450    2.7383 H         1 <0>         0.1356
     49 H16         6.0543   -0.2463    6.0925 H         1 <0>         0.0872
     50 H17         5.5391    1.2571    6.8942 H         1 <0>         0.1121
     51 H18         5.9034   -0.4823    8.5844 H         1 <0>         0.1513
     52 H19         4.1655   -0.1105    8.4852 H         1 <0>         0.1451
     53 H20         5.1788   -2.6069    9.5868 H         1 <0>         0.1405
     54 H21         3.4692   -2.1992    9.3028 H         1 <0>         0.1443
     55 H22         3.8274   -4.6655    9.4590 H         1 <0>         0.1436
     56 H23         3.2163   -4.1818    7.8578 H         1 <0>         0.0819
     57 H24         6.5318   -4.5137    6.3448 H         1 <0>         0.1428
     58 H25         4.8389   -4.0908    5.9893 H         1 <0>         0.0819
     59 H26         6.2078   -2.0456    6.1490 H         1 <0>         0.1397
     60 H27         6.7500   -2.5187    7.7774 H         1 <0>         0.1416
     61 H28         3.9722   -1.9999    6.9794 H         1 <0>         0.4298
@<TRIPOS>BOND
     1    1    6 ar
     2    1    2 ar
     3    1   36 1
     4    2    3 ar
     5    2   37 1
     6    3    4 ar
     7    3    8 1
     8    4    5 ar
     9    4   38 1
    10    5    6 ar
    11    5    7 1
    12    6   39 1
    13    7   40 1
    14    8    9 1
    15    8   19 1
    16    8   10 1
    17   10   11 1
    18   10   12 1
    19   10   21 1
    20   12   13 1
    21   13   18 ar
    22   13   14 ar
    23   14   15 ar
    24   14   41 1
    25   15   16 ar
    26   15   42 1
    27   16   17 ar
    28   16   20 1
    29   17   18 ar
    30   17   43 1
    31   18   19 1
    32   20   44 1
    33   21   26 ar
    34   21   22 ar
    35   22   23 ar
    36   22   45 1
    37   23   24 ar
    38   23   46 1
    39   24   25 ar
    40   24   27 1
    41   25   26 ar
    42   25   47 1
    43   26   48 1
    44   27   28 1
    45   28   29 1
    46   28   49 1
    47   28   50 1
    48   29   30 1
    49   29   51 1
    50   29   52 1
    51   30   35 1
    52   30   31 1
    53   30   61 1
    54   31   32 1
    55   31   53 1
    56   31   54 1
    57   32   33 1
    58   32   55 1
    59   32   56 1
    60   33   34 1
    61   34   35 1
    62   34   57 1
    63   34   58 1
    64   35   59 1
    65   35   60 1
@<TRIPOS>MOLECULE
CHEMBL209402
   48    50     0     0     0
SMALL
USER_CHARGES

@<TRIPOS>ATOM
      1 C1         -0.0187    1.5258    0.0104 C.3       1 <0>        -0.1538
      2 C2          0.0021   -0.0041    0.0020 C.3       1 <0>        -0.1258
      3 C3          0.7182   -0.4975   -1.2568 C.3       1 <0>        -0.1217
      4 C4          0.7390   -2.0273   -1.2652 C.3       1 <0>        -0.0997
      5 C5          1.4551   -2.5207   -2.5240 C.3       1 <0>        -0.0388
      6 C6          0.7503   -2.0384   -3.7943 C.3       1 <0>        -0.1059
      7 C7         -0.6463   -2.6676   -3.8404 C.3       1 <0>        -0.1691
      8 C8         -0.5519   -4.1676   -3.7740 C.2       1 <0>         0.3925
      9 O1         -1.4282   -4.8433   -4.2750 O.2       1 <0>        -0.4603
     10 C9          0.5360   -4.8032   -3.1409 C.2       1 <0>        -0.1864
     11 C10         1.5038   -4.0426   -2.5821 C.2       1 <0>         0.0155
     12 C11         2.7672   -4.4348   -1.9796 C.ar      1 <0>        -0.0964
     13 C12         3.1572   -5.6723   -1.4392 C.ar      1 <0>        -0.0618
     14 C13         4.4506   -5.7710   -0.9631 C.ar      1 <0>        -0.1568
     15 C14         5.3316   -4.6999   -1.0139 C.ar      1 <0>         0.1274
     16 C15         4.9521   -3.4602   -1.5342 C.ar      1 <0>        -0.1358
     17 C16         3.6596   -3.3401   -1.9979 C.ar      1 <0>        -0.0534
     18 C17         2.9444   -2.1248   -2.5195 C.3       1 <0>        -0.0800
     19 O2          6.5953   -4.8612   -0.5463 O.3       1 <0>        -0.4998
     20 C18         0.6187   -6.3070   -3.0885 C.3       1 <0>        -0.0749
     21 C19        -0.1830   -6.8205   -1.8908 C.3       1 <0>        -0.1183
     22 C20        -0.0991   -8.3472   -1.8376 C.3       1 <0>        -0.1529
     23 H1          1.0039    1.9031    0.0027 H         1 <0>         0.0537
     24 H2         -0.5459    1.8868   -0.8726 H         1 <0>         0.0541
     25 H3         -0.5289    1.8773    0.9072 H         1 <0>         0.0540
     26 H4          0.5293   -0.3651    0.8851 H         1 <0>         0.0612
     27 H5         -1.0205   -0.3814    0.0098 H         1 <0>         0.0614
     28 H6          0.1910   -0.1364   -2.1398 H         1 <0>         0.0682
     29 H7          1.7408   -0.1202   -1.2645 H         1 <0>         0.0664
     30 H8          1.2661   -2.3884   -0.3821 H         1 <0>         0.0699
     31 H9         -0.2836   -2.4046   -1.2575 H         1 <0>         0.0698
     32 H10         0.6632   -0.9521   -3.7758 H         1 <0>         0.0857
     33 H11         1.3210   -2.3466   -4.6703 H         1 <0>         0.0740
     34 H12        -1.2316   -2.3063   -2.9949 H         1 <0>         0.1026
     35 H13        -1.1402   -2.3791   -4.7683 H         1 <0>         0.0967
     36 H14         2.4760   -6.5094   -1.3984 H         1 <0>         0.1423
     37 H15         4.7847   -6.7066   -0.5396 H         1 <0>         0.1316
     38 H16         5.6425   -2.6305   -1.5716 H         1 <0>         0.1399
     39 H17         3.2787   -1.8919   -3.5305 H         1 <0>         0.0923
     40 H18         3.1093   -1.2740   -1.8584 H         1 <0>         0.0933
     41 H19         7.2261   -5.1637   -1.2140 H         1 <0>         0.3947
     42 H20         0.2078   -6.7257   -4.0072 H         1 <0>         0.0774
     43 H21         1.6606   -6.6102   -2.9852 H         1 <0>         0.0747
     44 H22         0.2279   -6.4018   -0.9721 H         1 <0>         0.0603
     45 H23        -1.2249   -6.5173   -1.9941 H         1 <0>         0.0653
     46 H24        -0.5100   -8.7659   -2.7563 H         1 <0>         0.0567
     47 H25         0.9428   -8.6504   -1.7343 H         1 <0>         0.0532
     48 H26        -0.6702   -8.7130   -0.9843 H         1 <0>         0.0564
@<TRIPOS>BOND
     1    1    2 1
     2    1   23 1
     3    1   24 1
     4    1   25 1
     5    2    3 1
     6    2   26 1
     7    2   27 1
     8    3    4 1
     9    3   28 1
    10    3   29 1
    11    4    5 1
    12    4   30 1
    13    4   31 1
    14    5   11 1
    15    5   18 1
    16    5    6 1
    17    6    7 1
    18    6   32 1
    19    6   33 1
    20    7    8 1
    21    7   34 1
    22    7   35 1
    23    8    9 2
    24    8   10 1
    25   10   11 2
    26   10   20 1
    27   11   12 1
    28   12   17 ar
    29   12   13 ar
    30   13   14 ar
    31   13   36 1
    32   14   15 ar
    33   14   37 1
    34   15   16 ar
    35   15   19 1
    36   16   17 ar
    37   16   38 1
    38   17   18 1
    39   18   39 1
    40   18   40 1
    41   19   41 1
    42   20   21 1
    43   20   42 1
    44   20   43 1
    45   21   22 1
    46   21   44 1
    47   21   45 1
    48   22   46 1
    49   22   47 1
    50   22   48 1
@<TRIPOS>MOLECULE
CHEMBL209402__1
   48    50     0     0     0
SMALL
USER_CHARGES

@<TRIPOS>ATOM
      1 C1          0.1997    1.5110    0.2932 C.3       1 <0>        -0.1540
      2 C2          0.2222   -0.0188    0.2755 C.3       1 <0>        -0.1255
      3 C3          0.8025   -0.5050   -1.0541 C.3       1 <0>        -0.1219
      4 C4          0.8250   -2.0347   -1.0717 C.3       1 <0>        -0.0991
      5 C5          1.4052   -2.5210   -2.4013 C.3       1 <0>        -0.0389
      6 C6          2.8342   -2.0127   -2.6076 C.3       1 <0>        -0.1062
      7 C7          3.7256   -2.6226   -1.5204 C.3       1 <0>        -0.1690
      8 C8          3.6434   -4.1245   -1.5517 C.2       1 <0>         0.3925
      9 O1          4.5840   -4.7818   -1.1534 O.2       1 <0>        -0.4602
     10 C9          2.4938   -4.7827   -2.0346 C.2       1 <0>        -0.1860
     11 C10         1.4503   -4.0425   -2.4712 C.2       1 <0>         0.0154
     12 C11         0.2147   -4.4593   -3.1136 C.ar      1 <0>        -0.0967
     13 C12        -0.4285   -5.7089   -3.0950 C.ar      1 <0>        -0.0616
     14 C13        -1.5869   -5.8309   -3.8383 C.ar      1 <0>        -0.1570
     15 C14        -2.0979   -4.7710   -4.5742 C.ar      1 <0>         0.1271
     16 C15        -1.4771   -3.5196   -4.5890 C.ar      1 <0>        -0.1353
     17 C16        -0.3296   -3.3763   -3.8389 C.ar      1 <0>        -0.0533
     18 C17         0.4954   -2.1449   -3.5868 C.3       1 <0>        -0.0800
     19 O2         -3.2304   -4.9552   -5.2989 O.3       1 <0>        -0.4992
     20 C18         2.4293   -6.2881   -2.0636 C.3       1 <0>        -0.0754
     21 C19         1.9423   -6.8039   -0.7080 C.3       1 <0>        -0.1178
     22 C20         1.8769   -8.3322   -0.7375 C.3       1 <0>        -0.1531
     23 H1          1.2151    1.8906    0.1793 H         1 <0>         0.0542
     24 H2         -0.4183    1.8747   -0.5277 H         1 <0>         0.0537
     25 H3         -0.2136    1.8574    1.2404 H         1 <0>         0.0540
     26 H4          0.8403   -0.3825    1.0964 H         1 <0>         0.0614
     27 H5         -0.7932   -0.3984    0.3893 H         1 <0>         0.0609
     28 H6          0.1844   -0.1412   -1.8749 H         1 <0>         0.0664
     29 H7          1.8179   -0.1254   -1.1679 H         1 <0>         0.0683
     30 H8          1.4430   -2.3985   -0.2508 H         1 <0>         0.0698
     31 H9         -0.1904   -2.4144   -0.9579 H         1 <0>         0.0695
     32 H10         3.1937   -2.3168   -3.5906 H         1 <0>         0.0742
     33 H11         2.8520   -0.9256   -2.5298 H         1 <0>         0.0857
     34 H12         4.7580   -2.3154   -1.6877 H         1 <0>         0.0967
     35 H13         3.3982   -2.2647   -0.5443 H         1 <0>         0.1025
     36 H14        -0.0348   -6.5371   -2.5246 H         1 <0>         0.1423
     37 H15        -2.1084   -6.7766   -3.8472 H         1 <0>         0.1314
     38 H16        -1.8798   -2.6986   -5.1636 H         1 <0>         0.1400
     39 H17        -0.1469   -1.3051   -3.3214 H         1 <0>         0.0932
     40 H18         1.0951   -1.9032   -4.4643 H         1 <0>         0.0925
     41 H19        -4.0438   -4.7600   -4.8138 H         1 <0>         0.3943
     42 H20         1.7379   -6.6072   -2.8435 H         1 <0>         0.0748
     43 H21         3.4211   -6.6903   -2.2704 H         1 <0>         0.0777
     44 H22         2.6337   -6.4848    0.0719 H         1 <0>         0.0651
     45 H23         0.9505   -6.4017   -0.5012 H         1 <0>         0.0602
     46 H24         1.1855   -8.6513   -1.5174 H         1 <0>         0.0534
     47 H25         2.8686   -8.7344   -0.9443 H         1 <0>         0.0568
     48 H26         1.5299   -8.6997    0.2283 H         1 <0>         0.0563
@<TRIPOS>BOND
     1    1    2 1
     2    1   23 1
     3    1   24 1
     4    1   25 1
     5    2    3 1
     6    2   26 1
     7    2   27 1
     8    3    4 1
     9    3   28 1
    10    3   29 1
    11    4    5 1
    12    4   30 1
    13    4   31 1
    14    5   11 1
    15    5   18 1
    16    5    6 1
    17    6    7 1
    18    6   32 1
    19    6   33 1
    20    7    8 1
    21    7   34 1
    22    7   35 1
    23    8    9 2
    24    8   10 1
    25   10   11 2
    26   10   20 1
    27   11   12 1
    28   12   17 ar
    29   12   13 ar
    30   13   14 ar
    31   13   36 1
    32   14   15 ar
    33   14   37 1
    34   15   16 ar
    35   15   19 1
    36   16   17 ar
    37   16   38 1
    38   17   18 1
    39   18   39 1
    40   18   40 1
    41   19   41 1
    42   20   21 1
    43   20   42 1
    44   20   43 1
    45   21   22 1
    46   21   44 1
    47   21   45 1
    48   22   46 1
    49   22   47 1
    50   22   48 1
@<TRIPOS>MOLECULE
CHEMBL192539
   62    65     0     0     0
SMALL
USER_CHARGES

@<TRIPOS>ATOM
      1 C1         -0.4970    1.8423    0.1894 C.3       1 <0>        -0.1598
      2 C2         -0.4363    0.3157    0.1084 C.3       1 <0>        -0.1141
      3 C3         -1.8332   -0.2465    0.1699 C.cat     1 <0>         0.5166
      4 N1         -2.4081   -0.5547    1.2741 N.pl3     1 <0>        -0.6042
      5 C4         -3.7579   -1.0753    1.0150 C.3       1 <0>         0.1428
      6 H1         -4.5094   -0.4418    1.4863 H         1 <0>         0.1468
      7 C5         -3.8870   -1.0176   -0.5207 C.3       1 <0>         0.1563
      8 H2         -4.6997   -0.3533   -0.8143 H         1 <0>         0.1430
      9 N2         -2.5894   -0.4631   -0.9430 N.pl3     1 <0>        -0.6522
     10 C6         -4.0970   -2.3971   -1.0898 C.ar      1 <0>        -0.1336
     11 C7         -3.0188   -3.2464   -1.2566 C.ar      1 <0>        -0.0813
     12 C8         -3.2086   -4.5113   -1.7785 C.ar      1 <0>        -0.1406
     13 C9         -4.4825   -4.9293   -2.1349 C.ar      1 <0>         0.1354
     14 C10        -5.5628   -4.0754   -1.9662 C.ar      1 <0>        -0.1392
     15 C11        -5.3684   -2.8134   -1.4390 C.ar      1 <0>        -0.0697
     16 O1         -4.6718   -6.1730   -2.6490 O.3       1 <0>        -0.4923
     17 C12        -3.8809   -2.4946    1.5064 C.ar      1 <0>        -0.1462
     18 C13        -2.8203   -3.3697    1.3609 C.ar      1 <0>        -0.0513
     19 C14        -2.9307   -4.6714    1.8101 C.ar      1 <0>        -0.1379
     20 C15        -4.1068   -5.1002    2.4080 C.ar      1 <0>         0.1436
     21 C16        -5.1694   -4.2201    2.5533 C.ar      1 <0>        -0.1986
     22 C17        -5.0521   -2.9179    2.1071 C.ar      1 <0>        -0.0419
     23 O2         -4.2181   -6.3804    2.8504 O.3       1 <0>        -0.3242
     24 C18        -5.4579   -6.7522    3.4558 C.3       1 <0>         0.0247
     25 C19        -5.3952   -8.2187    3.8874 C.3       1 <0>        -0.0021
     26 N3         -4.3632   -8.3815    4.9201 N.4       1 <0>        -0.3841
     27 C20        -4.1953   -9.8082    5.2212 C.3       1 <0>        -0.0080
     28 C21        -3.0654   -9.9894    6.2371 C.3       1 <0>        -0.1466
     29 C22        -3.4150   -9.2327    7.5217 C.3       1 <0>        -0.1406
     30 C23        -3.6609   -7.7594    7.1837 C.3       1 <0>        -0.1446
     31 C24        -4.7687   -7.6608    6.1328 C.3       1 <0>        -0.0131
     32 H3          0.5134    2.2490    0.1449 H         1 <0>         0.0992
     33 H4         -1.0808    2.2276   -0.6466 H         1 <0>         0.0743
     34 H5         -0.9667    2.1381    1.1275 H         1 <0>         0.0716
     35 H6          0.0334    0.0200   -0.8296 H         1 <0>         0.1283
     36 H7          0.1475   -0.0696    0.9444 H         1 <0>         0.1260
     37 H8         -2.3186   -0.2846   -1.8571 H         1 <0>         0.4609
     38 H9         -2.0273   -2.9205   -0.9789 H         1 <0>         0.1182
     39 H10        -2.3660   -5.1741   -1.9092 H         1 <0>         0.1352
     40 H11        -6.5555   -4.3985   -2.2429 H         1 <0>         0.1391
     41 H12        -6.2097   -2.1499   -1.3033 H         1 <0>         0.1353
     42 H13        -4.8503   -6.8509   -1.9829 H         1 <0>         0.3964
     43 H14        -1.9050   -3.0353    0.8953 H         1 <0>         0.1261
     44 H15        -2.1023   -5.3547    1.6956 H         1 <0>         0.1392
     45 H16        -6.0860   -4.5515    3.0184 H         1 <0>         0.1372
     46 H17        -5.8774   -2.2312    2.2239 H         1 <0>         0.1392
     47 H18        -5.6391   -6.1241    4.3280 H         1 <0>         0.0902
     48 H19        -6.2672   -6.6190    2.7378 H         1 <0>         0.1121
     49 H20        -6.3623   -8.5208    4.2894 H         1 <0>         0.1529
     50 H21        -5.1492   -8.8405    3.0267 H         1 <0>         0.1439
     51 H22        -5.1228  -10.2032    5.6358 H         1 <0>         0.1315
     52 H23        -3.9496  -10.3459    4.3055 H         1 <0>         0.1321
     53 H24        -2.9434  -11.0492    6.4607 H         1 <0>         0.1157
     54 H25        -2.1373   -9.5949    5.8234 H         1 <0>         0.0873
     55 H26        -4.3151   -9.6604    7.9632 H         1 <0>         0.0841
     56 H27        -2.5883   -9.3116    8.2277 H         1 <0>         0.0967
     57 H28        -3.9646   -7.2252    8.0840 H         1 <0>         0.1134
     58 H29        -2.7451   -7.3186    6.7897 H         1 <0>         0.0862
     59 H30        -4.9464   -6.6132    5.8900 H         1 <0>         0.1244
     60 H31        -5.6840   -8.1016    6.5279 H         1 <0>         0.1324
     61 H32        -3.4895   -8.0058    4.5831 H         1 <0>         0.4271
     62 H33        -2.0095   -0.4585    2.1532 H         1 <0>         0.4609
@<TRIPOS>BOND
     1    1    2 1
     2    1   32 1
     3    1   33 1
     4    1   34 1
     5    2    3 1
     6    2   35 1
     7    2   36 1
     8    3    9 1
     9    3    4 2
    10    4    5 1
    11    4   62 1
    12    5    6 1
    13    5    7 1
    14    5   17 1
    15    7    8 1
    16    7    9 1
    17    7   10 1
    18    9   37 1
    19   10   15 ar
    20   10   11 ar
    21   11   12 ar
    22   11   38 1
    23   12   13 ar
    24   12   39 1
    25   13   14 ar
    26   13   16 1
    27   14   15 ar
    28   14   40 1
    29   15   41 1
    30   16   42 1
    31   17   22 ar
    32   17   18 ar
    33   18   19 ar
    34   18   43 1
    35   19   20 ar
    36   19   44 1
    37   20   21 ar
    38   20   23 1
    39   21   22 ar
    40   21   45 1
    41   22   46 1
    42   23   24 1
    43   24   25 1
    44   24   47 1
    45   24   48 1
    46   25   26 1
    47   25   49 1
    48   25   50 1
    49   26   31 1
    50   26   27 1
    51   26   61 1
    52   27   28 1
    53   27   51 1
    54   27   52 1
    55   28   29 1
    56   28   53 1
    57   28   54 1
    58   29   30 1
    59   29   55 1
    60   29   56 1
    61   30   31 1
    62   30   57 1
    63   30   58 1
    64   31   59 1
    65   31   60 1
@<TRIPOS>MOLECULE
CHEMBL378675
   46    49     0     0     0
SMALL
USER_CHARGES

@<TRIPOS>ATOM
      1 C1         -0.0187    1.5258    0.0104 C.3       1 <0>        -0.1540
      2 C2          0.0021   -0.0041    0.0020 C.3       1 <0>        -0.1260
      3 C3          0.7182   -0.4975   -1.2568 C.3       1 <0>        -0.1217
      4 C4          0.7390   -2.0273   -1.2652 C.3       1 <0>        -0.1019
      5 C5          1.4551   -2.5207   -2.5240 C.3       1 <0>        -0.0378
      6 C6          0.7528   -2.0333   -3.7924 C.3       1 <0>        -0.1085
      7 C7         -0.6624   -2.6182   -3.8286 C.3       1 <0>        -0.1614
      8 C8         -0.6132   -4.1226   -3.7902 C.2       1 <0>         0.4007
      9 O1         -1.5090   -4.7690   -4.2934 O.2       1 <0>        -0.4477
     10 C9          0.5126   -4.8119   -3.1478 C.2       1 <0>        -0.1340
     11 C10         1.5028   -4.0426   -2.5804 C.2       1 <0>         0.0477
     12 C11         2.7620   -4.4377   -1.9804 C.ar      1 <0>        -0.1080
     13 C12         3.1511   -5.6775   -1.4417 C.ar      1 <0>        -0.0415
     14 C13         4.4349   -5.7796   -0.9693 C.ar      1 <0>        -0.1577
     15 C14         5.3216   -4.7131   -1.0160 C.ar      1 <0>         0.1351
     16 C15         4.9490   -3.4691   -1.5320 C.ar      1 <0>        -0.1380
     17 C16         3.6576   -3.3436   -1.9967 C.ar      1 <0>        -0.0474
     18 C17         2.9450   -2.1263   -2.5166 C.3       1 <0>        -0.0804
     19 O2          6.5842   -4.8828   -0.5478 O.3       1 <0>        -0.4991
     20 C18         0.5804   -6.2853   -3.1112 C.2       1 <0>         0.0369
     21 C19        -0.2855   -7.1091   -2.4595 C.2       1 <0>        -0.1804
     22 C20         0.1550   -8.4271   -2.6927 C.2       1 <0>        -0.2098
     23 C21         1.2553   -8.3448   -3.4663 C.2       1 <0>        -0.0409
     24 O3          1.5064   -7.0497   -3.7217 O.3       1 <0>        -0.1689
     25 H1          1.0039    1.9031    0.0027 H         1 <0>         0.0539
     26 H2         -0.5459    1.8868   -0.8726 H         1 <0>         0.0543
     27 H3         -0.5289    1.8773    0.9072 H         1 <0>         0.0541
     28 H4          0.5293   -0.3651    0.8851 H         1 <0>         0.0616
     29 H5         -1.0205   -0.3814    0.0098 H         1 <0>         0.0619
     30 H6          0.1910   -0.1364   -2.1398 H         1 <0>         0.0694
     31 H7          1.7408   -0.1202   -1.2645 H         1 <0>         0.0675
     32 H8          1.2661   -2.3884   -0.3821 H         1 <0>         0.0722
     33 H9         -0.2836   -2.4046   -1.2575 H         1 <0>         0.0723
     34 H10         0.6981   -0.9447   -3.7843 H         1 <0>         0.0911
     35 H11         1.3084   -2.3667   -4.6688 H         1 <0>         0.0768
     36 H12        -1.2239   -2.2546   -2.9681 H         1 <0>         0.1082
     37 H13        -1.1606   -2.2979   -4.7437 H         1 <0>         0.1031
     38 H14         2.4682   -6.5133   -1.4015 H         1 <0>         0.1342
     39 H15         4.7653   -6.7176   -0.5481 H         1 <0>         0.1318
     40 H16         5.6427   -2.6420   -1.5651 H         1 <0>         0.1423
     41 H17         3.2810   -1.8917   -3.5266 H         1 <0>         0.0955
     42 H18         3.1101   -1.2772   -1.8534 H         1 <0>         0.0972
     43 H19         7.2139   -5.1866   -1.2158 H         1 <0>         0.3959
     44 H20        -1.1438   -6.8103   -1.8761 H         1 <0>         0.1470
     45 H21        -0.3025   -9.3321   -2.3213 H         1 <0>         0.1508
     46 H22         1.8367   -9.1814   -3.8249 H         1 <0>         0.2038
@<TRIPOS>BOND
     1    1    2 1
     2    1   25 1
     3    1   26 1
     4    1   27 1
     5    2    3 1
     6    2   28 1
     7    2   29 1
     8    3    4 1
     9    3   30 1
    10    3   31 1
    11    4    5 1
    12    4   32 1
    13    4   33 1
    14    5   11 1
    15    5   18 1
    16    5    6 1
    17    6    7 1
    18    6   34 1
    19    6   35 1
    20    7    8 1
    21    7   36 1
    22    7   37 1
    23    8    9 2
    24    8   10 1
    25   10   11 2
    26   10   20 1
    27   11   12 1
    28   12   17 ar
    29   12   13 ar
    30   13   14 ar
    31   13   38 1
    32   14   15 ar
    33   14   39 1
    34   15   16 ar
    35   15   19 1
    36   16   17 ar
    37   16   40 1
    38   17   18 1
    39   18   41 1
    40   18   42 1
    41   19   43 1
    42   20   24 1
    43   20   21 2
    44   21   22 1
    45   21   44 1
    46   22   23 2
    47   22   45 1
    48   23   24 1
    49   23   46 1
@<TRIPOS>MOLECULE
CHEMBL378675__1
   46    49     0     0     0
SMALL
USER_CHARGES

@<TRIPOS>ATOM
      1 C1         -0.0187    1.5258    0.0104 C.3       1 <0>        -0.1540
      2 C2          0.0021   -0.0041    0.0020 C.3       1 <0>        -0.1259
      3 C3          0.7182   -0.4975   -1.2568 C.3       1 <0>        -0.1215
      4 C4          0.7390   -2.0273   -1.2652 C.3       1 <0>        -0.1014
      5 C5          1.4551   -2.5207   -2.5240 C.3       1 <0>        -0.0380
      6 C6          2.8961   -2.0109   -2.5818 C.3       1 <0>        -0.1082
      7 C7          3.6669   -2.5729   -1.3835 C.3       1 <0>        -0.1614
      8 C8          3.6324   -4.0782   -1.3923 C.2       1 <0>         0.4006
      9 O1          4.5355   -4.7058   -0.8785 O.2       1 <0>        -0.4480
     10 C9          2.5121   -4.7909   -2.0185 C.2       1 <0>        -0.1342
     11 C10         1.5028   -4.0426   -2.5804 C.2       1 <0>         0.0474
     12 C11         0.3454   -4.4630   -3.3453 C.ar      1 <0>        -0.1096
     13 C12        -0.2971   -5.7136   -3.3893 C.ar      1 <0>        -0.0475
     14 C13        -1.3627   -5.8402   -4.2439 C.ar      1 <0>        -0.1590
     15 C14        -1.7975   -4.7875   -5.0365 C.ar      1 <0>         0.1351
     16 C15        -1.1825   -3.5333   -4.9956 C.ar      1 <0>        -0.1382
     17 C16        -0.1202   -3.3831   -4.1305 C.ar      1 <0>        -0.0467
     18 C17         0.6735   -2.1501   -3.7996 C.3       1 <0>        -0.0805
     19 O2         -2.8478   -4.9811   -5.8741 O.3       1 <0>        -0.4986
     20 C18         2.4696   -6.2656   -2.0453 C.2       1 <0>         0.0370
     21 C19         3.3429   -7.0784   -2.7010 C.2       1 <0>        -0.1767
     22 C20         2.9278   -8.4022   -2.4549 C.2       1 <0>        -0.2073
     23 C21         1.8343   -8.3341   -1.6703 C.2       1 <0>        -0.0425
     24 O3          1.5634   -7.0420   -1.4204 O.3       1 <0>        -0.1722
     25 H1          1.0039    1.9031    0.0027 H         1 <0>         0.0545
     26 H2         -0.5459    1.8868   -0.8726 H         1 <0>         0.0538
     27 H3         -0.5289    1.8773    0.9072 H         1 <0>         0.0541
     28 H4          0.5293   -0.3651    0.8851 H         1 <0>         0.0620
     29 H5         -1.0205   -0.3814    0.0098 H         1 <0>         0.0613
     30 H6          0.1910   -0.1364   -2.1398 H         1 <0>         0.0675
     31 H7          1.7408   -0.1202   -1.2645 H         1 <0>         0.0696
     32 H8          1.2661   -2.3884   -0.3821 H         1 <0>         0.0720
     33 H9         -0.2836   -2.4046   -1.2575 H         1 <0>         0.0717
     34 H10         3.3651   -2.3452   -3.5072 H         1 <0>         0.0775
     35 H11         2.9002   -0.9217   -2.5406 H         1 <0>         0.0907
     36 H12         4.7025   -2.2366   -1.4322 H         1 <0>         0.1033
     37 H13         3.2140   -2.2082   -0.4615 H         1 <0>         0.1075
     38 H14         0.0346   -6.5389   -2.7768 H         1 <0>         0.1406
     39 H15        -1.8788   -6.7872   -4.3012 H         1 <0>         0.1316
     40 H16        -1.5247   -2.7174   -5.6149 H         1 <0>         0.1424
     41 H17         0.0069   -1.3096   -3.6061 H         1 <0>         0.0969
     42 H18         1.3612   -1.9118   -4.6110 H         1 <0>         0.0959
     43 H19        -3.7080   -4.7858   -5.4780 H         1 <0>         0.3955
     44 H20         4.1898   -6.7685   -3.2951 H         1 <0>         0.1468
     45 H21         3.3971   -9.3016   -2.8255 H         1 <0>         0.1510
     46 H22         1.2713   -9.1783   -1.3005 H         1 <0>         0.2052
@<TRIPOS>BOND
     1    1    2 1
     2    1   25 1
     3    1   26 1
     4    1   27 1
     5    2    3 1
     6    2   28 1
     7    2   29 1
     8    3    4 1
     9    3   30 1
    10    3   31 1
    11    4    5 1
    12    4   32 1
    13    4   33 1
    14    5   11 1
    15    5   18 1
    16    5    6 1
    17    6    7 1
    18    6   34 1
    19    6   35 1
    20    7    8 1
    21    7   36 1
    22    7   37 1
    23    8    9 2
    24    8   10 1
    25   10   11 2
    26   10   20 1
    27   11   12 1
    28   12   17 ar
    29   12   13 ar
    30   13   14 ar
    31   13   38 1
    32   14   15 ar
    33   14   39 1
    34   15   16 ar
    35   15   19 1
    36   16   17 ar
    37   16   40 1
    38   17   18 1
    39   18   41 1
    40   18   42 1
    41   19   43 1
    42   20   24 1
    43   20   21 2
    44   21   22 1
    45   21   44 1
    46   22   23 2
    47   22   45 1
    48   23   24 1
    49   23   46 1
@<TRIPOS>MOLECULE
CHEMBL469511
   63    67     0     0     0
SMALL
USER_CHARGES

@<TRIPOS>ATOM
      1 C1         -0.0169    1.3951    0.0097 C.ar      1 <0>        -0.0866
      2 C2          1.1682    2.0976    0.0022 C.ar      1 <0>        -0.1411
      3 C3          2.3805    1.4194   -0.0130 C.ar      1 <0>         0.1092
      4 C4          2.4052    0.0305   -0.0207 C.ar      1 <0>        -0.1451
      5 C5          1.2261   -0.6820   -0.0133 C.ar      1 <0>        -0.0826
      6 C6          0.0021   -0.0041    0.0020 C.ar      1 <0>        -0.0539
      7 C7         -1.2594   -0.7590    0.0105 C.2       1 <0>        -0.0509
      8 C8         -1.6051   -1.5390   -1.0535 C.2       1 <0>        -0.0325
      9 C9         -2.9096   -2.2328   -1.0421 C.ar      1 <0>        -0.0851
     10 C10        -3.0058   -3.5871   -1.3524 C.ar      1 <0>        -0.0766
     11 C11        -4.2376   -4.2079   -1.3327 C.ar      1 <0>        -0.1517
     12 C12        -5.3795   -3.4871   -1.0051 C.ar      1 <0>         0.1315
     13 C13        -5.2915   -2.1371   -0.6945 C.ar      1 <0>        -0.1572
     14 C14        -4.0621   -1.5059   -0.7112 C.ar      1 <0>         0.1320
     15 O1         -3.9514   -0.1865   -0.4101 O.3       1 <0>        -0.3231
     16 C15        -3.4193    0.1537    0.8632 C.3       1 <0>         0.0727
     17 C16        -2.1853   -0.6863    1.1983 C.3       1 <0>        -0.1218
     18 O2         -6.5884   -4.1068   -0.9890 O.3       1 <0>        -0.4948
     19 C17        -0.6866   -1.6879   -2.2039 C.ar      1 <0>        -0.0502
     20 C18        -0.3762   -0.5835   -2.9990 C.ar      1 <0>        -0.0530
     21 C19         0.4804   -0.7261   -4.0696 C.ar      1 <0>        -0.1353
     22 C20         1.0338   -1.9668   -4.3578 C.ar      1 <0>         0.1139
     23 C21         0.7270   -3.0681   -3.5694 C.ar      1 <0>        -0.1992
     24 C22        -0.1238   -2.9321   -2.4933 C.ar      1 <0>        -0.0714
     25 O3          1.8773   -2.1036   -5.4141 O.3       1 <0>        -0.3280
     26 C23         2.4107   -3.4074   -5.6538 C.3       1 <0>         0.0272
     27 C24         3.3318   -3.3651   -6.8748 C.3       1 <0>         0.0036
     28 N1          4.4950   -2.5173   -6.5815 N.4       1 <0>        -0.3958
     29 C25         5.3601   -3.1685   -5.5648 C.3       1 <0>        -0.0103
     30 C26         6.7358   -2.4898   -5.7828 C.3       1 <0>        -0.1448
     31 C27         6.8004   -2.3248   -7.3186 C.3       1 <0>        -0.1449
     32 C28         5.3349   -2.3680   -7.7897 C.3       1 <0>        -0.0088
     33 O4          3.5464    2.1172   -0.0209 O.3       1 <0>        -0.5021
     34 H1         -0.9588    1.9233    0.0260 H         1 <0>         0.1297
     35 H2          1.1548    3.1775    0.0077 H         1 <0>         0.1322
     36 H3          3.3505   -0.4917   -0.0329 H         1 <0>         0.1262
     37 H4          1.2465   -1.7618   -0.0197 H         1 <0>         0.1233
     38 H5         -2.1196   -4.1491   -1.6077 H         1 <0>         0.1310
     39 H6         -4.3148   -5.2580   -1.5733 H         1 <0>         0.1353
     40 H7         -6.1819   -1.5810   -0.4408 H         1 <0>         0.1409
     41 H8         -3.1449    1.2086    0.8642 H         1 <0>         0.1039
     42 H9         -4.1808   -0.0157    1.6243 H         1 <0>         0.0648
     43 H10        -2.4980   -1.6941    1.4718 H         1 <0>         0.0838
     44 H11        -1.6570   -0.2350    2.0381 H         1 <0>         0.0940
     45 H12        -6.8226   -4.4900   -0.1326 H         1 <0>         0.3969
     46 H13        -0.8067    0.3815   -2.7759 H         1 <0>         0.1338
     47 H14         0.7210    0.1279   -4.6852 H         1 <0>         0.1332
     48 H15         1.1589   -4.0314   -3.7971 H         1 <0>         0.1280
     49 H16        -0.3584   -3.7880   -1.8780 H         1 <0>         0.1307
     50 H17         2.9777   -3.7339   -4.7821 H         1 <0>         0.0848
     51 H18         1.5943   -4.1056   -5.8386 H         1 <0>         0.1081
     52 H19         3.6683   -4.3745   -7.1112 H         1 <0>         0.1484
     53 H20         2.7883   -2.9547   -7.7258 H         1 <0>         0.1413
     54 H21         4.9884   -2.9703   -4.5595 H         1 <0>         0.1330
     55 H22         5.4271   -4.2411   -5.7468 H         1 <0>         0.1347
     56 H23         6.7695   -1.5188   -5.2888 H         1 <0>         0.0986
     57 H24         7.5428   -3.1317   -5.4296 H         1 <0>         0.1172
     58 H25         7.2529   -1.3676   -7.5775 H         1 <0>         0.1057
     59 H26         7.3652   -3.1439   -7.7637 H         1 <0>         0.1044
     60 H27         5.1835   -3.2184   -8.4545 H         1 <0>         0.1314
     61 H28         5.0830   -1.4411   -8.3049 H         1 <0>         0.1330
     62 H29         3.8924    2.3147    0.8602 H         1 <0>         0.3946
     63 H30         4.1925   -1.6121   -6.2540 H         1 <0>         0.4339
@<TRIPOS>BOND
     1    1    6 ar
     2    1    2 ar
     3    1   34 1
     4    2    3 ar
     5    2   35 1
     6    3    4 ar
     7    3   33 1
     8    4    5 ar
     9    4   36 1
    10    5    6 ar
    11    5   37 1
    12    6    7 1
    13    7   17 1
    14    7    8 2
    15    8    9 1
    16    8   19 1
    17    9   14 ar
    18    9   10 ar
    19   10   11 ar
    20   10   38 1
    21   11   12 ar
    22   11   39 1
    23   12   13 ar
    24   12   18 1
    25   13   14 ar
    26   13   40 1
    27   14   15 1
    28   15   16 1
    29   16   17 1
    30   16   41 1
    31   16   42 1
    32   17   43 1
    33   17   44 1
    34   18   45 1
    35   19   24 ar
    36   19   20 ar
    37   20   21 ar
    38   20   46 1
    39   21   22 ar
    40   21   47 1
    41   22   23 ar
    42   22   25 1
    43   23   24 ar
    44   23   48 1
    45   24   49 1
    46   25   26 1
    47   26   27 1
    48   26   50 1
    49   26   51 1
    50   27   28 1
    51   27   52 1
    52   27   53 1
    53   28   32 1
    54   28   29 1
    55   28   63 1
    56   29   30 1
    57   29   54 1
    58   29   55 1
    59   30   31 1
    60   30   56 1
    61   30   57 1
    62   31   32 1
    63   31   58 1
    64   31   59 1
    65   32   60 1
    66   32   61 1
    67   33   62 1
@<TRIPOS>MOLECULE
CHEMBL10560
   45    47     0     0     0
SMALL
USER_CHARGES

@<TRIPOS>ATOM
      1 C1         -0.0187    1.5258    0.0104 C.3       1 <0>        -0.1632
      2 C2          0.0021   -0.0041    0.0020 C.3       1 <0>        -0.1204
      3 C3          0.7421   -0.5109    1.2415 C.3       1 <0>        -0.0105
      4 C4          0.0015   -0.0327    2.4886 C.3       1 <0>        -0.1060
      5 C5         -1.4412   -0.5458    2.4345 C.3       1 <0>        -0.1421
      6 C6         -1.4511   -2.0732    2.3699 C.3       1 <0>         0.2539
      7 C7         -0.6823   -2.5502    1.1334 C.3       1 <0>        -0.0973
      8 C8          0.7544   -2.0386    1.2189 C.3       1 <0>        -0.0739
      9 H1          1.2191   -2.4116    2.1316 H         1 <0>         0.0768
     10 C9          1.5716   -2.4925    0.0091 C.3       1 <0>        -0.1171
     11 C10         3.0400   -2.1619    0.2741 C.3       1 <0>        -0.0808
     12 C11         3.2023   -0.7418    0.7488 C.ar      1 <0>        -0.0565
     13 C12         2.1467    0.0212    1.2202 C.ar      1 <0>        -0.0688
     14 C13         2.3632    1.3206    1.6573 C.ar      1 <0>        -0.0979
     15 C14         3.6317    1.8615    1.6520 C.ar      1 <0>        -0.1498
     16 C15         4.7008    1.0995    1.2043 C.ar      1 <0>         0.1018
     17 C16         4.4787   -0.1968    0.7231 C.ar      1 <0>        -0.1474
     18 O1          5.9545    1.6239    1.1909 O.3       1 <0>        -0.4996
     19 C17        -0.8151   -2.6175    3.5807 C.1       1 <0>        -0.2144
     20 C18        -0.3078   -3.0516    4.5464 C.1       1 <0>        -0.1649
     21 C19         0.3282   -3.5959    5.7572 C.3       1 <0>        -0.0458
     22 O2         -2.8011   -2.5360    2.2969 O.3       1 <0>        -0.5495
     23 H2          1.0039    1.9031    0.0027 H         1 <0>         0.0625
     24 H3         -0.5459    1.8868   -0.8726 H         1 <0>         0.0541
     25 H4         -0.5289    1.8773    0.9072 H         1 <0>         0.0562
     26 H5         -1.0205   -0.3814    0.0098 H         1 <0>         0.0755
     27 H6          0.5123   -0.3556   -0.8948 H         1 <0>         0.0680
     28 H7          0.4949   -0.4232    3.3786 H         1 <0>         0.0671
     29 H8          0.0007    1.0570    2.5176 H         1 <0>         0.0751
     30 H9         -1.9754   -0.2179    3.3263 H         1 <0>         0.0686
     31 H10        -1.9354   -0.1431    1.5503 H         1 <0>         0.0863
     32 H11        -0.6808   -3.6398    1.1021 H         1 <0>         0.0750
     33 H12        -1.1570   -2.1576    0.2342 H         1 <0>         0.0856
     34 H13         1.4560   -3.5674   -0.1305 H         1 <0>         0.0720
     35 H14         1.2313   -1.9666   -0.8829 H         1 <0>         0.0741
     36 H15         3.4268   -2.8394    1.0353 H         1 <0>         0.0770
     37 H16         3.6084   -2.2981   -0.6459 H         1 <0>         0.0775
     38 H17         1.5303    1.9136    2.0053 H         1 <0>         0.1284
     39 H18         3.7918    2.8732    1.9943 H         1 <0>         0.1275
     40 H19         5.3069   -0.7900    0.3643 H         1 <0>         0.1267
     41 H20         6.4501    1.4793    2.0085 H         1 <0>         0.3901
     42 H21         0.3219   -4.6849    5.7126 H         1 <0>         0.0819
     43 H22         1.3569   -3.2407    5.8182 H         1 <0>         0.0816
     44 H23        -0.2232   -3.2651    6.6373 H         1 <0>         0.0815
     45 H24        -3.3467   -2.2781    3.0524 H         1 <0>         0.3807
@<TRIPOS>BOND
     1    1    2 1
     2    1   23 1
     3    1   24 1
     4    1   25 1
     5    2    3 1
     6    2   26 1
     7    2   27 1
     8    3    8 1
     9    3   13 1
    10    3    4 1
    11    4    5 1
    12    4   28 1
    13    4   29 1
    14    5    6 1
    15    5   30 1
    16    5   31 1
    17    6    7 1
    18    6   19 1
    19    6   22 1
    20    7    8 1
    21    7   32 1
    22    7   33 1
    23    8    9 1
    24    8   10 1
    25   10   11 1
    26   10   34 1
    27   10   35 1
    28   11   12 1
    29   11   36 1
    30   11   37 1
    31   12   17 ar
    32   12   13 ar
    33   13   14 ar
    34   14   15 ar
    35   14   38 1
    36   15   16 ar
    37   15   39 1
    38   16   17 ar
    39   16   18 1
    40   17   40 1
    41   18   41 1
    42   19   20 3
    43   20   21 1
    44   21   42 1
    45   21   43 1
    46   21   44 1
    47   22   45 1
@<TRIPOS>MOLECULE
CHEMBL1087557
   65    70     0     0     0
SMALL
USER_CHARGES

@<TRIPOS>ATOM
      1 C1         -0.0164    1.3773   -0.0547 C.ar      1 <0>        -0.0580
      2 C2          1.1697    2.0854   -0.0624 C.ar      1 <0>        -0.1493
      3 C3          2.3801    1.4093   -0.0131 C.ar      1 <0>         0.1395
      4 C4          2.3960    0.0233    0.0439 C.ar      1 <0>        -0.2039
      5 C5          1.2071   -0.6802    0.0513 C.ar      1 <0>        -0.0633
      6 C6          0.0021   -0.0041    0.0020 C.ar      1 <0>        -0.1524
      7 C7         -1.2934   -0.7740    0.0107 C.3       1 <0>         0.1935
      8 H1         -2.0997   -0.1244   -0.3298 H         1 <0>         0.1305
      9 C8         -1.5866   -1.2357    1.4120 C.2       1 <0>        -0.1051
     10 C9         -1.1299   -2.4395    1.8287 C.2       1 <0>        -0.0451
     11 C10        -1.4430   -2.9122    3.2220 C.3       1 <0>        -0.1191
     12 C11        -0.6172   -2.1389    4.2485 C.3       1 <0>         0.0751
     13 O1         -0.6164   -0.7458    3.9658 O.3       1 <0>        -0.3216
     14 C12        -1.7993   -0.1682    3.6334 C.ar      1 <0>         0.1343
     15 C13        -2.3300   -0.3844    2.3504 C.ar      1 <0>        -0.0790
     16 C14        -3.5413    0.2038    1.9903 C.ar      1 <0>        -0.0753
     17 C15        -4.2148    0.9944    2.8985 C.ar      1 <0>        -0.1496
     18 C16        -3.6902    1.2050    4.1675 C.ar      1 <0>         0.1283
     19 C17        -2.4836    0.6237    4.5343 C.ar      1 <0>        -0.1582
     20 O2         -4.3618    1.9843    5.0550 O.3       1 <0>        -0.4952
     21 C18        -0.3531   -3.2590    0.8892 C.ar      1 <0>        -0.1273
     22 C19         0.4240   -4.3318    1.3187 C.ar      1 <0>        -0.0572
     23 C20         1.1362   -5.0712    0.3969 C.ar      1 <0>        -0.1702
     24 C21         1.0801   -4.7483   -0.9535 C.ar      1 <0>         0.1465
     25 C22         0.3073   -3.6806   -1.3900 C.ar      1 <0>        -0.1739
     26 C23        -0.4119   -2.9340   -0.4780 C.ar      1 <0>         0.1528
     27 O3         -1.1834   -1.8906   -0.8725 O.3       1 <0>        -0.2967
     28 O4          1.7866   -5.4821   -1.8527 O.3       1 <0>        -0.4948
     29 O5          3.5484    2.1036   -0.0209 O.3       1 <0>        -0.3119
     30 C24         4.7562    1.3418    0.0319 C.3       1 <0>         0.0646
     31 C25         5.9577    2.2889    0.0142 C.3       1 <0>        -0.1344
     32 C26         7.2509    1.4732    0.0707 C.3       1 <0>         0.1018
     33 N1          8.4014    2.3800    0.0538 N.am      1 <0>        -0.5745
     34 C27         8.9868    2.7866   -1.0795 C.2       1 <0>         0.5254
     35 O6          8.6488    2.4659   -2.1986 O.2       1 <0>        -0.4770
     36 C28        10.1368    3.7103   -0.7421 C.3       1 <0>        -0.1574
     37 C29        10.1143    3.7677    0.7989 C.3       1 <0>        -0.1573
     38 C30         8.9504    2.8748    1.1701 C.2       1 <0>         0.5254
     39 O7          8.5760    2.6422    2.2994 O.2       1 <0>        -0.4771
     40 H2         -0.9591    1.9033   -0.0886 H         1 <0>         0.1311
     41 H3          1.1547    3.1644   -0.1071 H         1 <0>         0.1338
     42 H4          3.3370   -0.5053    0.0820 H         1 <0>         0.1281
     43 H5          1.2189   -1.7592    0.0956 H         1 <0>         0.1274
     44 H6         -2.5030   -2.7588    3.4241 H         1 <0>         0.0842
     45 H7         -1.2123   -3.9745    3.3016 H         1 <0>         0.0936
     46 H8         -1.0379   -2.3016    5.2408 H         1 <0>         0.0635
     47 H9          0.4086   -2.5071    4.2319 H         1 <0>         0.1024
     48 H10        -3.9507    0.0417    1.0041 H         1 <0>         0.1354
     49 H11        -5.1532    1.4517    2.6216 H         1 <0>         0.1362
     50 H12        -2.0808    0.7910    5.5223 H         1 <0>         0.1386
     51 H13        -4.9888    1.4992    5.6087 H         1 <0>         0.3944
     52 H14         0.4693   -4.5834    2.3680 H         1 <0>         0.1347
     53 H15         1.7399   -5.9040    0.7262 H         1 <0>         0.1357
     54 H16         0.2687   -3.4345   -2.4409 H         1 <0>         0.1417
     55 H17         1.3004   -6.2360   -2.2138 H         1 <0>         0.3965
     56 H18         4.7731    0.7505    0.9474 H         1 <0>         0.0676
     57 H19         4.8046    0.6773   -0.8308 H         1 <0>         0.0678
     58 H20         5.9408    2.8802   -0.9013 H         1 <0>         0.0820
     59 H21         5.9093    2.9534    0.8768 H         1 <0>         0.0819
     60 H22         7.2678    0.8819    0.9863 H         1 <0>         0.0987
     61 H23         7.2993    0.8087   -0.7919 H         1 <0>         0.0988
     62 H24        11.0797    3.2943   -1.0968 H         1 <0>         0.1232
     63 H25         9.9700    4.7009   -1.1654 H         1 <0>         0.1231
     64 H26        11.0461    3.3801    1.2108 H         1 <0>         0.1235
     65 H27         9.9364    4.7867    1.1423 H         1 <0>         0.1228
@<TRIPOS>BOND
     1    1    6 ar
     2    1    2 ar
     3    1   40 1
     4    2    3 ar
     5    2   41 1
     6    3    4 ar
     7    3   29 1
     8    4    5 ar
     9    4   42 1
    10    5    6 ar
    11    5   43 1
    12    6    7 1
    13    7    8 1
    14    7   27 1
    15    7    9 1
    16    9   15 1
    17    9   10 2
    18   10   11 1
    19   10   21 1
    20   11   12 1
    21   11   44 1
    22   11   45 1
    23   12   13 1
    24   12   46 1
    25   12   47 1
    26   13   14 1
    27   14   19 ar
    28   14   15 ar
    29   15   16 ar
    30   16   17 ar
    31   16   48 1
    32   17   18 ar
    33   17   49 1
    34   18   19 ar
    35   18   20 1
    36   19   50 1
    37   20   51 1
    38   21   26 ar
    39   21   22 ar
    40   22   23 ar
    41   22   52 1
    42   23   24 ar
    43   23   53 1
    44   24   25 ar
    45   24   28 1
    46   25   26 ar
    47   25   54 1
    48   26   27 1
    49   28   55 1
    50   29   30 1
    51   30   31 1
    52   30   56 1
    53   30   57 1
    54   31   32 1
    55   31   58 1
    56   31   59 1
    57   32   33 1
    58   32   60 1
    59   32   61 1
    60   33   38 am
    61   33   34 am
    62   34   35 2
    63   34   36 1
    64   36   37 1
    65   36   62 1
    66   36   63 1
    67   37   38 1
    68   37   64 1
    69   37   65 1
    70   38   39 2
@<TRIPOS>MOLECULE
CHEMBL394788
   30    32     0     0     0
SMALL
USER_CHARGES

@<TRIPOS>ATOM
      1 C1         -0.0167    1.3836    0.0096 C.ar      1 <0>        -0.1205
      2 C2          1.1669    2.1003    0.0022 C.ar      1 <0>        -0.0200
      3 C3          2.3801    1.4279   -0.0130 C.ar      1 <0>        -0.1426
      4 C4          2.4024    0.0167   -0.0207 C.ar      1 <0>        -0.1105
      5 C5          1.2144   -0.6913   -0.0128 C.ar      1 <0>        -0.0684
      6 C6          0.0021   -0.0041    0.0020 C.ar      1 <0>         0.1409
      7 O1         -1.1659   -0.6953    0.0094 O.3       1 <0>        -0.4879
      8 C7          3.8309   -0.3643   -0.0363 C.2       1 <0>         0.5888
      9 O2          4.2622   -1.4996   -0.0469 O.2       1 <0>        -0.4490
     10 N1          4.5726    0.7580   -0.0374 N.am      1 <0>        -0.5400
     11 C8          3.7929    1.8540   -0.0241 C.2       1 <0>         0.5899
     12 O3          4.1862    3.0033   -0.0225 O.2       1 <0>        -0.4528
     13 C9          5.9755    0.7822   -0.0499 C.ar      1 <0>         0.1765
     14 C10         6.6589    0.8060   -1.2582 C.ar      1 <0>        -0.0793
     15 C11         8.0393    0.8297   -1.2700 C.ar      1 <0>        -0.0829
     16 C12         8.7436    0.8295   -0.0746 C.ar      1 <0>         0.1331
     17 C13         8.0614    0.8053    1.1328 C.ar      1 <0>        -0.0766
     18 C14         6.6804    0.7882    1.1457 C.ar      1 <0>        -0.0171
     19 N2          5.9524    0.7696    2.4343 N.pl3     1 <0>         0.0344
     20 O4          6.5665    0.7748    3.4757 O.2       1 <0>        -0.1327
     21 O5          4.7436    0.7491    2.4455 O.3       1 <0>        -0.1584
     22 O6         10.1030    0.8524   -0.0868 O.3       1 <0>        -0.4812
     23 H1         -0.9611    1.9073    0.0260 H         1 <0>         0.1525
     24 H2          1.1462    3.1801    0.0078 H         1 <0>         0.1506
     25 H3          1.2260   -1.7712   -0.0191 H         1 <0>         0.1513
     26 H4         -1.5128   -0.8908   -0.8718 H         1 <0>         0.4024
     27 H5          6.1108    0.8055   -2.1888 H         1 <0>         0.1598
     28 H6          8.5710    0.8482   -2.2099 H         1 <0>         0.1629
     29 H7          8.6101    0.8044    2.0630 H         1 <0>         0.1713
     30 H8         10.4814    1.7423   -0.0814 H         1 <0>         0.4057
@<TRIPOS>BOND
     1    1    6 ar
     2    1    2 ar
     3    1   23 1
     4    2    3 ar
     5    2   24 1
     6    3   11 1
     7    3    4 ar
     8    4    5 ar
     9    4    8 1
    10    5    6 ar
    11    5   25 1
    12    6    7 1
    13    7   26 1
    14    8    9 2
    15    8   10 am
    16   10   11 am
    17   10   13 1
    18   11   12 2
    19   13   18 ar
    20   13   14 ar
    21   14   15 ar
    22   14   27 1
    23   15   16 ar
    24   15   28 1
    25   16   17 ar
    26   16   22 1
    27   17   18 ar
    28   17   29 1
    29   18   19 1
    30   19   20 2
    31   19   21 1
    32   22   30 1
@<TRIPOS>MOLECULE
CHEMBL399143
   85    91     0     0     0
SMALL
USER_CHARGES

@<TRIPOS>ATOM
      1 C1         -0.0187    1.5258    0.0104 C.3       1 <0>        -0.1382
      2 C2          0.0021   -0.0041    0.0020 C.3       1 <0>        -0.0441
      3 C3         -1.4064   -0.5323    0.1772 C.3       1 <0>        -0.0990
      4 C4         -1.9756    0.0797    1.4714 C.3       1 <0>        -0.1138
      5 C5         -1.0851   -0.2532    2.6598 C.3       1 <0>        -0.0416
      6 H1         -1.0806   -1.3360    2.7843 H         1 <0>         0.0762
      7 C6         -1.6005    0.3571    3.9311 C.ar      1 <0>        -0.0774
      8 C7         -2.9742    0.4710    4.0964 C.ar      1 <0>        -0.1030
      9 C8         -3.5002    1.0150    5.2487 C.ar      1 <0>        -0.1472
     10 C9         -2.6480    1.4512    6.2530 C.ar      1 <0>         0.1026
     11 C10        -1.2787    1.3413    6.0863 C.ar      1 <0>        -0.1479
     12 C11        -0.7495    0.7994    4.9225 C.ar      1 <0>        -0.0574
     13 C12         0.7502    0.7384    4.8002 C.3       1 <0>        -0.0825
     14 C13         1.1786   -0.1827    3.6588 C.3       1 <0>        -0.1133
     15 C14         0.3612    0.2021    2.4252 C.3       1 <0>        -0.0745
     16 H2          0.3879    1.2814    2.2748 H         1 <0>         0.0879
     17 C15         0.8604   -0.5199    1.1907 C.3       1 <0>        -0.0806
     18 H3          0.7388   -1.5961    1.3133 H         1 <0>         0.0779
     19 C16         2.2767   -0.1707    0.7204 C.3       1 <0>        -0.1118
     20 C17         2.2489   -0.5546   -0.7844 C.3       1 <0>        -0.1439
     21 C18         0.7638   -0.4984   -1.2221 C.3       1 <0>         0.2564
     22 C19         0.2945   -1.8392   -1.6079 C.1       1 <0>        -0.2038
     23 C20        -0.0798   -2.9086   -1.9155 C.1       1 <0>        -0.1601
     24 C21        -0.5491   -4.2494   -2.3013 C.3       1 <0>        -0.0090
     25 C22         0.2268   -4.7272   -3.5303 C.3       1 <0>        -0.1146
     26 C23        -0.2610   -6.1209   -3.9313 C.3       1 <0>        -0.1162
     27 C24         0.5148   -6.5987   -5.1604 C.3       1 <0>        -0.0094
     28 C25         0.0456   -7.9395   -5.5461 C.1       1 <0>        -0.1329
     29 C26        -0.3287   -9.0089   -5.8538 C.1       1 <0>        -0.1513
     30 C27        -0.7853  -10.3133   -6.2290 C.ar      1 <0>         0.0035
     31 C28        -1.7957  -10.9376   -5.5018 C.ar      1 <0>        -0.0378
     32 C29        -2.2421  -12.1979   -5.8584 C.ar      1 <0>        -0.1435
     33 C30        -1.6923  -12.8544   -6.9400 C.ar      1 <0>        -0.0224
     34 C31        -0.6800  -12.2455   -7.6808 C.ar      1 <0>        -0.2201
     35 C32        -0.2216  -10.9665   -7.3340 C.ar      1 <0>         0.1641
     36 O1          0.7545  -10.3836   -8.0584 O.3       1 <0>        -0.2131
     37 C33         1.3149  -10.9819   -9.1206 C.2       1 <0>         0.2119
     38 C34         0.9403  -12.2190   -9.5449 C.2       1 <0>        -0.3177
     39 C35        -0.0689  -12.9198   -8.8439 C.2       1 <0>         0.4239
     40 O2         -0.4300  -14.0309   -9.1948 O.2       1 <0>        -0.4662
     41 C36         2.3784  -10.2702   -9.8574 C.ar      1 <0>        -0.0754
     42 C37         2.9778  -10.8632  -10.9708 C.ar      1 <0>        -0.0789
     43 C38         3.9707  -10.1927  -11.6543 C.ar      1 <0>        -0.1207
     44 C39         4.3731   -8.9355  -11.2393 C.ar      1 <0>        -0.0918
     45 C40         3.7838   -8.3422  -10.1368 C.ar      1 <0>        -0.1227
     46 C41         2.7854   -8.9986   -9.4476 C.ar      1 <0>        -0.0776
     47 O3          0.6019    0.4156   -2.3086 O.3       1 <0>        -0.5406
     48 O4         -3.1559    1.9844    7.3952 O.3       1 <0>        -0.5003
     49 H4          1.0033    1.9032   -0.0250 H         1 <0>         0.0576
     50 H5         -0.5695    1.8864   -0.8582 H         1 <0>         0.0636
     51 H6         -0.5045    1.8775    0.9205 H         1 <0>         0.0642
     52 H7         -2.0207   -0.2365   -0.6732 H         1 <0>         0.0669
     53 H8         -1.3862   -1.6190    0.2597 H         1 <0>         0.0643
     54 H9         -2.0364    1.1623    1.3603 H         1 <0>         0.0714
     55 H10        -2.9745   -0.3191    1.6483 H         1 <0>         0.0658
     56 H11        -3.6371    0.1306    3.3147 H         1 <0>         0.1273
     57 H12        -4.5700    1.1016    5.3689 H         1 <0>         0.1273
     58 H13        -0.6155    1.6804    6.8684 H         1 <0>         0.1260
     59 H14         1.1338    1.7413    4.6125 H         1 <0>         0.0779
     60 H15         1.1695    0.3666    5.7351 H         1 <0>         0.0749
     61 H16         2.2408   -0.0469    3.4558 H         1 <0>         0.0725
     62 H17         0.9854   -1.2202    3.9313 H         1 <0>         0.0662
     63 H18         2.4720    0.8946    0.8429 H         1 <0>         0.0754
     64 H19         3.0180   -0.7638    1.2560 H         1 <0>         0.0705
     65 H20         2.8367    0.1577   -1.3632 H         1 <0>         0.0803
     66 H21         2.6412   -1.5624   -0.9207 H         1 <0>         0.0717
     67 H22        -0.3857   -4.9428   -1.4763 H         1 <0>         0.0870
     68 H23        -1.6126   -4.2084   -2.5363 H         1 <0>         0.0877
     69 H24         0.0634   -4.0338   -4.3553 H         1 <0>         0.0695
     70 H25         1.2903   -4.7682   -3.2953 H         1 <0>         0.0697
     71 H26        -0.0977   -6.8143   -3.1063 H         1 <0>         0.0699
     72 H27        -1.3246   -6.0799   -4.1663 H         1 <0>         0.0707
     73 H28         0.3515   -5.9053   -5.9854 H         1 <0>         0.0919
     74 H29         1.5784   -6.6397   -4.9254 H         1 <0>         0.0918
     75 H30        -2.2340  -10.4343   -4.6527 H         1 <0>         0.1454
     76 H31        -3.0260  -12.6711   -5.2858 H         1 <0>         0.1442
     77 H32        -2.0451  -13.8382   -7.2122 H         1 <0>         0.1476
     78 H33         1.4163  -12.6664  -10.4049 H         1 <0>         0.1638
     79 H34         2.6650  -11.8445  -11.2955 H         1 <0>         0.1363
     80 H35         4.4354  -10.6502  -12.5153 H         1 <0>         0.1348
     81 H36         5.1509   -8.4150  -11.7782 H         1 <0>         0.1307
     82 H37         4.1029   -7.3609   -9.8181 H         1 <0>         0.1318
     83 H38         2.3227   -8.5323   -8.5904 H         1 <0>         0.1333
     84 H39         1.0650    0.1529   -3.1159 H         1 <0>         0.3777
     85 H40        -3.3231    1.3350    8.0920 H         1 <0>         0.3901
@<TRIPOS>BOND
     1    1    2 1
     2    1   49 1
     3    1   50 1
     4    1   51 1
     5    2   17 1
     6    2   21 1
     7    2    3 1
     8    3    4 1
     9    3   52 1
    10    3   53 1
    11    4    5 1
    12    4   54 1
    13    4   55 1
    14    5    6 1
    15    5   15 1
    16    5    7 1
    17    7   12 ar
    18    7    8 ar
    19    8    9 ar
    20    8   56 1
    21    9   10 ar
    22    9   57 1
    23   10   11 ar
    24   10   48 1
    25   11   12 ar
    26   11   58 1
    27   12   13 1
    28   13   14 1
    29   13   59 1
    30   13   60 1
    31   14   15 1
    32   14   61 1
    33   14   62 1
    34   15   16 1
    35   15   17 1
    36   17   18 1
    37   17   19 1
    38   19   20 1
    39   19   63 1
    40   19   64 1
    41   20   21 1
    42   20   65 1
    43   20   66 1
    44   21   22 1
    45   21   47 1
    46   22   23 3
    47   23   24 1
    48   24   25 1
    49   24   67 1
    50   24   68 1
    51   25   26 1
    52   25   69 1
    53   25   70 1
    54   26   27 1
    55   26   71 1
    56   26   72 1
    57   27   28 1
    58   27   73 1
    59   27   74 1
    60   28   29 3
    61   29   30 1
    62   30   35 ar
    63   30   31 ar
    64   31   32 ar
    65   31   75 1
    66   32   33 ar
    67   32   76 1
    68   33   34 ar
    69   33   77 1
    70   34   39 1
    71   34   35 ar
    72   35   36 1
    73   36   37 1
    74   37   38 2
    75   37   41 1
    76   38   39 1
    77   38   78 1
    78   39   40 2
    79   41   46 ar
    80   41   42 ar
    81   42   43 ar
    82   42   79 1
    83   43   44 ar
    84   43   80 1
    85   44   45 ar
    86   44   81 1
    87   45   46 ar
    88   45   82 1
    89   46   83 1
    90   47   84 1
    91   48   85 1
@<TRIPOS>MOLECULE
CHEMBL250519
   71    77     0     0     0
SMALL
USER_CHARGES

@<TRIPOS>ATOM
      1 C1         -0.0187    1.5258    0.0104 C.3       1 <0>        -0.1378
      2 C2          0.0021   -0.0041    0.0020 C.3       1 <0>        -0.0446
      3 C3         -1.4064   -0.5323    0.1772 C.3       1 <0>        -0.1018
      4 C4         -1.9756    0.0797    1.4714 C.3       1 <0>        -0.1133
      5 C5         -1.0851   -0.2532    2.6598 C.3       1 <0>        -0.0424
      6 H1         -1.0806   -1.3360    2.7843 H         1 <0>         0.0764
      7 C6         -1.6005    0.3571    3.9311 C.ar      1 <0>        -0.0774
      8 C7         -2.9742    0.4710    4.0964 C.ar      1 <0>        -0.1029
      9 C8         -3.5002    1.0150    5.2487 C.ar      1 <0>        -0.1471
     10 C9         -2.6480    1.4512    6.2530 C.ar      1 <0>         0.1028
     11 C10        -1.2787    1.3413    6.0863 C.ar      1 <0>        -0.1479
     12 C11        -0.7495    0.7994    4.9225 C.ar      1 <0>        -0.0574
     13 C12         0.7502    0.7384    4.8002 C.3       1 <0>        -0.0822
     14 C13         1.1786   -0.1827    3.6588 C.3       1 <0>        -0.1134
     15 C14         0.3612    0.2021    2.4252 C.3       1 <0>        -0.0741
     16 H2          0.3879    1.2814    2.2748 H         1 <0>         0.0885
     17 C15         0.8604   -0.5199    1.1907 C.3       1 <0>        -0.0820
     18 H3          0.7388   -1.5961    1.3133 H         1 <0>         0.0784
     19 C16         2.2767   -0.1707    0.7204 C.3       1 <0>        -0.1114
     20 C17         2.2489   -0.5546   -0.7844 C.3       1 <0>        -0.1437
     21 C18         0.7638   -0.4984   -1.2221 C.3       1 <0>         0.2555
     22 C19         0.2945   -1.8392   -1.6079 C.1       1 <0>        -0.1554
     23 C20        -0.0798   -2.9086   -1.9155 C.1       1 <0>        -0.1238
     24 C21        -0.5363   -4.2130   -2.2908 C.ar      1 <0>        -0.0025
     25 C22        -1.5467   -4.8373   -1.5636 C.ar      1 <0>        -0.0336
     26 C23        -1.9931   -6.0976   -1.9202 C.ar      1 <0>        -0.1442
     27 C24        -1.4434   -6.7541   -3.0017 C.ar      1 <0>        -0.0193
     28 C25        -0.4310   -6.1452   -3.7425 C.ar      1 <0>        -0.2211
     29 C26         0.0273   -4.8662   -3.3958 C.ar      1 <0>         0.1670
     30 O1          1.0034   -4.2833   -4.1201 O.3       1 <0>        -0.2137
     31 C27         1.5638   -4.8816   -5.1823 C.2       1 <0>         0.2116
     32 C28         1.1893   -6.1187   -5.6066 C.2       1 <0>        -0.3168
     33 C29         0.1800   -6.8195   -4.9057 C.2       1 <0>         0.4238
     34 O2         -0.1811   -7.9306   -5.2566 O.2       1 <0>        -0.4652
     35 C30         2.6273   -4.1699   -5.9192 C.ar      1 <0>        -0.0755
     36 C31         3.2268   -4.7629   -7.0325 C.ar      1 <0>        -0.0789
     37 C32         4.2196   -4.0924   -7.7161 C.ar      1 <0>        -0.1204
     38 C33         4.6220   -2.8352   -7.3011 C.ar      1 <0>        -0.0915
     39 C34         4.0327   -2.2419   -6.1986 C.ar      1 <0>        -0.1224
     40 C35         3.0344   -2.8983   -5.5093 C.ar      1 <0>        -0.0777
     41 O3          0.6019    0.4156   -2.3086 O.3       1 <0>        -0.5374
     42 O4         -3.1559    1.9844    7.3952 O.3       1 <0>        -0.5003
     43 H4          1.0033    1.9032   -0.0250 H         1 <0>         0.0584
     44 H5         -0.5695    1.8864   -0.8582 H         1 <0>         0.0646
     45 H6         -0.5045    1.8775    0.9205 H         1 <0>         0.0652
     46 H7         -2.0207   -0.2365   -0.6732 H         1 <0>         0.0687
     47 H8         -1.3862   -1.6190    0.2597 H         1 <0>         0.0646
     48 H9         -2.0364    1.1623    1.3603 H         1 <0>         0.0722
     49 H10        -2.9745   -0.3191    1.6483 H         1 <0>         0.0666
     50 H11        -3.6371    0.1306    3.3147 H         1 <0>         0.1274
     51 H12        -4.5700    1.1016    5.3689 H         1 <0>         0.1274
     52 H13        -0.6155    1.6804    6.8684 H         1 <0>         0.1260
     53 H14         1.1338    1.7413    4.6125 H         1 <0>         0.0780
     54 H15         1.1695    0.3666    5.7351 H         1 <0>         0.0749
     55 H16         2.2408   -0.0469    3.4558 H         1 <0>         0.0726
     56 H17         0.9854   -1.2202    3.9313 H         1 <0>         0.0662
     57 H18         2.4720    0.8946    0.8429 H         1 <0>         0.0767
     58 H19         3.0180   -0.7638    1.2560 H         1 <0>         0.0715
     59 H20         2.8367    0.1577   -1.3632 H         1 <0>         0.0832
     60 H21         2.6412   -1.5624   -0.9207 H         1 <0>         0.0722
     61 H22        -1.9851   -4.3340   -0.7145 H         1 <0>         0.1459
     62 H23        -2.7771   -6.5708   -1.3476 H         1 <0>         0.1449
     63 H24        -1.7962   -7.7379   -3.2740 H         1 <0>         0.1482
     64 H25         1.6652   -6.5661   -6.4667 H         1 <0>         0.1641
     65 H26         2.9139   -5.7442   -7.3573 H         1 <0>         0.1364
     66 H27         4.6843   -4.5499   -8.5770 H         1 <0>         0.1350
     67 H28         5.3998   -2.3147   -7.8400 H         1 <0>         0.1311
     68 H29         4.3518   -1.2606   -5.8799 H         1 <0>         0.1321
     69 H30         2.5717   -2.4320   -4.6521 H         1 <0>         0.1320
     70 H31         1.0650    0.1529   -3.1159 H         1 <0>         0.3792
     71 H32        -3.3231    1.3350    8.0920 H         1 <0>         0.3902
@<TRIPOS>BOND
     1    1    2 1
     2    1   43 1
     3    1   44 1
     4    1   45 1
     5    2   17 1
     6    2   21 1
     7    2    3 1
     8    3    4 1
     9    3   46 1
    10    3   47 1
    11    4    5 1
    12    4   48 1
    13    4   49 1
    14    5    6 1
    15    5   15 1
    16    5    7 1
    17    7   12 ar
    18    7    8 ar
    19    8    9 ar
    20    8   50 1
    21    9   10 ar
    22    9   51 1
    23   10   11 ar
    24   10   42 1
    25   11   12 ar
    26   11   52 1
    27   12   13 1
    28   13   14 1
    29   13   53 1
    30   13   54 1
    31   14   15 1
    32   14   55 1
    33   14   56 1
    34   15   16 1
    35   15   17 1
    36   17   18 1
    37   17   19 1
    38   19   20 1
    39   19   57 1
    40   19   58 1
    41   20   21 1
    42   20   59 1
    43   20   60 1
    44   21   22 1
    45   21   41 1
    46   22   23 3
    47   23   24 1
    48   24   29 ar
    49   24   25 ar
    50   25   26 ar
    51   25   61 1
    52   26   27 ar
    53   26   62 1
    54   27   28 ar
    55   27   63 1
    56   28   33 1
    57   28   29 ar
    58   29   30 1
    59   30   31 1
    60   31   32 2
    61   31   35 1
    62   32   33 1
    63   32   64 1
    64   33   34 2
    65   35   40 ar
    66   35   36 ar
    67   36   37 ar
    68   36   65 1
    69   37   38 ar
    70   37   66 1
    71   38   39 ar
    72   38   67 1
    73   39   40 ar
    74   39   68 1
    75   40   69 1
    76   41   70 1
    77   42   71 1
@<TRIPOS>MOLECULE
CHEMBL441366
   46    49     0     0     0
SMALL
USER_CHARGES

@<TRIPOS>ATOM
      1 C1          0.1883    1.5086    0.2855 C.3       1 <0>        -0.1541
      2 C2          0.2122   -0.0211    0.2678 C.3       1 <0>        -0.1254
      3 C3          0.7981   -0.5067   -1.0596 C.3       1 <0>        -0.1225
      4 C4          0.8219   -2.0364   -1.0773 C.3       1 <0>        -0.0993
      5 C5          1.4078   -2.5220   -2.4046 C.3       1 <0>        -0.0372
      6 C6          2.8357   -2.0088   -2.6116 C.3       1 <0>        -0.1059
      7 C7          3.7352   -2.6313   -1.5387 C.3       1 <0>        -0.1691
      8 C8          3.6586   -4.1331   -1.5900 C.2       1 <0>         0.3925
      9 O1          4.6078   -4.7930   -1.2175 O.2       1 <0>        -0.4584
     10 C9          2.5012   -4.7871   -2.0647 C.2       1 <0>        -0.1782
     11 C10         1.4561   -4.0397   -2.4785 C.2       1 <0>         0.0137
     12 C11         0.1985   -4.4649   -3.1038 C.ar      1 <0>        -0.0653
     13 C12        -0.4753   -5.7098   -3.0558 C.ar      1 <0>        -0.0725
     14 C13        -1.6108   -5.9361   -3.7523 C.ar      1 <0>        -0.0670
     15 C14        -2.1594   -4.9159   -4.5533 C.ar      1 <0>         0.0414
     16 C15        -1.4933   -3.6052   -4.5925 C.ar      1 <0>         0.0351
     17 C16        -0.3306   -3.4070   -3.8339 C.ar      1 <0>        -0.0095
     18 C17         0.4993   -2.1620   -3.5930 C.3       1 <0>        -0.0728
     19 N1         -2.2329   -2.8759   -5.4159 N.2       1 <0>        -0.2610
     20 N2         -3.2133   -3.5950   -5.8392 N.pl3     1 <0>        -0.1928
     21 N3         -3.2014   -4.7884   -5.3570 N.2       1 <0>        -0.2699
     22 H1         -3.8889   -3.2719   -6.4556 H         1 <0>         0.4747
     23 C18         2.4333   -6.2920   -2.1077 C.3       1 <0>        -0.0803
     24 C19         1.9691   -6.8205   -0.7490 C.3       1 <0>        -0.1479
     25 H2          1.2038    1.8891    0.1757 H         1 <0>         0.0543
     26 H3         -0.4268    1.8719   -0.5377 H         1 <0>         0.0535
     27 H4         -0.2291    1.8545    1.2311 H         1 <0>         0.0538
     28 H5          0.8273   -0.3845    1.0910 H         1 <0>         0.0619
     29 H6         -0.8033   -0.4017    0.3776 H         1 <0>         0.0608
     30 H7          0.1829   -0.1434   -1.8828 H         1 <0>         0.0665
     31 H8          1.8136   -0.1262   -1.1693 H         1 <0>         0.0690
     32 H9          1.4371   -2.3998   -0.2541 H         1 <0>         0.0718
     33 H10        -0.1936   -2.4170   -0.9675 H         1 <0>         0.0708
     34 H11         3.1899   -2.2998   -3.6005 H         1 <0>         0.0756
     35 H12         2.8518   -0.9229   -2.5183 H         1 <0>         0.0872
     36 H13         4.7654   -2.3180   -1.7074 H         1 <0>         0.0974
     37 H14         3.4122   -2.2884   -0.5557 H         1 <0>         0.1034
     38 H15        -0.0691   -6.5021   -2.4445 H         1 <0>         0.1422
     39 H16        -2.0973   -6.8986   -3.6949 H         1 <0>         0.1432
     40 H17        -0.1443   -1.3202   -3.3376 H         1 <0>         0.0951
     41 H18         1.0991   -1.9293   -4.4728 H         1 <0>         0.0954
     42 H19         1.7277   -6.6019   -2.8785 H         1 <0>         0.0764
     43 H20         3.4204   -6.6939   -2.3359 H         1 <0>         0.0785
     44 H21         1.9199   -7.9090   -0.7801 H         1 <0>         0.0616
     45 H22         2.6747   -6.5106    0.0218 H         1 <0>         0.0582
     46 H23         0.9819   -6.4186   -0.5208 H         1 <0>         0.0552
@<TRIPOS>BOND
     1    1    2 1
     2    1   25 1
     3    1   26 1
     4    1   27 1
     5    2    3 1
     6    2   28 1
     7    2   29 1
     8    3    4 1
     9    3   30 1
    10    3   31 1
    11    4    5 1
    12    4   32 1
    13    4   33 1
    14    5   11 1
    15    5   18 1
    16    5    6 1
    17    6    7 1
    18    6   34 1
    19    6   35 1
    20    7    8 1
    21    7   36 1
    22    7   37 1
    23    8    9 2
    24    8   10 1
    25   10   11 2
    26   10   23 1
    27   11   12 1
    28   12   17 ar
    29   12   13 ar
    30   13   14 ar
    31   13   38 1
    32   14   15 ar
    33   14   39 1
    34   15   16 ar
    35   15   21 2
    36   16   17 ar
    37   16   19 2
    38   17   18 1
    39   18   40 1
    40   18   41 1
    41   19   20 1
    42   20   22 1
    43   20   21 1
    44   23   24 1
    45   23   42 1
    46   23   43 1
    47   24   44 1
    48   24   45 1
    49   24   46 1
@<TRIPOS>MOLECULE
CHEMBL441366__1
   46    49     0     0     0
SMALL
USER_CHARGES

@<TRIPOS>ATOM
      1 C1          0.1163    1.5111   -0.3065 C.3       1 <0>        -0.1541
      2 C2          0.1275   -0.0188   -0.3128 C.3       1 <0>        -0.1259
      3 C3         -1.3023   -0.5400   -0.1548 C.3       1 <0>        -0.1217
      4 C4         -1.2911   -2.0699   -0.1611 C.3       1 <0>        -0.1007
      5 C5         -2.7209   -2.5911   -0.0030 C.3       1 <0>        -0.0344
      6 C6         -3.6252   -2.1050   -1.1390 C.3       1 <0>        -0.1062
      7 C7         -3.1266   -2.7181   -2.4518 C.3       1 <0>        -0.1692
      8 C8         -3.0926   -4.2192   -2.3553 C.2       1 <0>         0.3914
      9 O1         -3.2238   -4.8859   -3.3619 O.2       1 <0>        -0.4547
     10 C9         -2.9101   -4.8651   -1.1130 C.2       1 <0>        -0.1698
     11 C10        -2.7692   -4.1108   -0.0026 C.2       1 <0>         0.0069
     12 C11        -2.6747   -4.5280    1.3998 C.ar      1 <0>        -0.0453
     13 C12        -2.2807   -5.7522    1.9756 C.ar      1 <0>        -0.0879
     14 C13        -2.3300   -5.9359    3.3213 C.ar      1 <0>        -0.0517
     15 C14        -2.7693   -4.9004    4.1544 C.ar      1 <0>         0.0260
     16 C15        -3.1302   -3.6582    3.5955 C.ar      1 <0>         0.0383
     17 C16        -3.0663   -3.4693    2.2241 C.ar      1 <0>        -0.0579
     18 C17        -3.3047   -2.2367    1.3756 C.3       1 <0>        -0.0755
     19 N1         -3.4935   -2.8741    4.6640 N.pl3     1 <0>        -0.4147
     20 N2         -3.3726   -3.5780    5.7361 N.2       1 <0>        -0.0073
     21 N3         -2.9537   -4.7674    5.4821 N.2       1 <0>        -0.2477
     22 H1         -3.7892   -1.9514    4.6189 H         1 <0>         0.4534
     23 C18        -2.8743   -6.3693   -1.0284 C.3       1 <0>        -0.0821
     24 C19        -1.4513   -6.8616   -1.2995 C.3       1 <0>        -0.1478
     25 H2          1.1349    1.8824   -0.4191 H         1 <0>         0.0547
     26 H3         -0.4959    1.8734   -1.1324 H         1 <0>         0.0545
     27 H4         -0.2982    1.8675    0.6365 H         1 <0>         0.0530
     28 H5          0.5419   -0.3752   -1.2559 H         1 <0>         0.0626
     29 H6          0.7396   -0.3811    0.5131 H         1 <0>         0.0611
     30 H7         -1.7167   -0.1836    0.7883 H         1 <0>         0.0644
     31 H8         -1.9145   -0.1777   -0.9806 H         1 <0>         0.0694
     32 H9         -0.8767   -2.4263   -1.1041 H         1 <0>         0.0728
     33 H10        -0.6789   -2.4322    0.6648 H         1 <0>         0.0709
     34 H11        -4.6509   -2.4230   -0.9524 H         1 <0>         0.0756
     35 H12        -3.5814   -1.0177   -1.2025 H         1 <0>         0.0873
     36 H13        -3.7944   -2.4250   -3.2619 H         1 <0>         0.0985
     37 H14        -2.1230   -2.3486   -2.6627 H         1 <0>         0.1040
     38 H15        -1.9358   -6.5543    1.3399 H         1 <0>         0.1445
     39 H16        -2.0304   -6.8817    3.7481 H         1 <0>         0.1468
     40 H17        -2.7840   -1.3778    1.7990 H         1 <0>         0.0912
     41 H18        -4.3723   -2.0323    1.2946 H         1 <0>         0.0937
     42 H19        -3.1843   -6.6846   -0.0320 H         1 <0>         0.0771
     43 H20        -3.5523   -6.7912   -1.7703 H         1 <0>         0.0797
     44 H21        -1.1414   -6.5463   -2.2958 H         1 <0>         0.0585
     45 H22        -0.7733   -6.4397   -0.5575 H         1 <0>         0.0552
     46 H23        -1.4254   -7.9496   -1.2382 H         1 <0>         0.0629
@<TRIPOS>BOND
     1    1    2 1
     2    1   25 1
     3    1   26 1
     4    1   27 1
     5    2    3 1
     6    2   28 1
     7    2   29 1
     8    3    4 1
     9    3   30 1
    10    3   31 1
    11    4    5 1
    12    4   32 1
    13    4   33 1
    14    5   11 1
    15    5   18 1
    16    5    6 1
    17    6    7 1
    18    6   34 1
    19    6   35 1
    20    7    8 1
    21    7   36 1
    22    7   37 1
    23    8    9 2
    24    8   10 1
    25   10   11 2
    26   10   23 1
    27   11   12 1
    28   12   17 ar
    29   12   13 ar
    30   13   14 ar
    31   13   38 1
    32   14   15 ar
    33   14   39 1
    34   15   16 ar
    35   15   21 1
    36   16   17 ar
    37   16   19 1
    38   17   18 1
    39   18   40 1
    40   18   41 1
    41   19   22 1
    42   19   20 1
    43   20   21 2
    44   23   24 1
    45   23   42 1
    46   23   43 1
    47   24   44 1
    48   24   45 1
    49   24   46 1
@<TRIPOS>MOLECULE
CHEMBL441366__2
   46    49     0     0     0
SMALL
USER_CHARGES

@<TRIPOS>ATOM
      1 C1          0.1893    1.5089    0.2860 C.3       1 <0>        -0.1543
      2 C2          0.2130   -0.0208    0.2683 C.3       1 <0>        -0.1251
      3 C3          0.7984   -0.5064   -1.0593 C.3       1 <0>        -0.1232
      4 C4          0.8220   -2.0362   -1.0770 C.3       1 <0>        -0.0993
      5 C5          1.4075   -2.5218   -2.4045 C.3       1 <0>        -0.0377
      6 C6          2.8357   -2.0095   -2.6103 C.3       1 <0>        -0.1061
      7 C7          3.7330   -2.6304   -1.5345 C.3       1 <0>        -0.1691
      8 C8          3.6551   -4.1321   -1.5827 C.2       1 <0>         0.3929
      9 O1          4.6025   -4.7920   -1.2056 O.2       1 <0>        -0.4589
     10 C9          2.4983   -4.7865   -2.0588 C.2       1 <0>        -0.1816
     11 C10         1.4550   -4.0400   -2.4773 C.2       1 <0>         0.0183
     12 C11         0.1999   -4.4638   -3.1067 C.ar      1 <0>        -0.0999
     13 C12        -0.4762   -5.6997   -3.0804 C.ar      1 <0>        -0.0342
     14 C13        -1.6143   -5.8838   -3.8024 C.ar      1 <0>        -0.1292
     15 C14        -2.1331   -4.8445   -4.5725 C.ar      1 <0>         0.1094
     16 C15        -1.4965   -3.5896   -4.5856 C.ar      1 <0>        -0.0119
     17 C16        -0.3337   -3.4001   -3.8342 C.ar      1 <0>         0.0205
     18 C17         0.4994   -2.1581   -3.5923 C.3       1 <0>        -0.0771
     19 N1         -2.2144   -2.7755   -5.3962 N.2       1 <0>        -0.2049
     20 N2         -3.2217   -3.4110   -5.8822 N.2       1 <0>         0.0023
     21 N3         -3.2231   -4.7272   -5.3983 N.pl3     1 <0>        -0.4954
     22 H1         -3.8690   -5.4202   -5.6067 H         1 <0>         0.4507
     23 C18         2.4300   -6.2914   -2.0993 C.3       1 <0>        -0.0791
     24 C19         1.9608   -6.8174   -0.7413 C.3       1 <0>        -0.1478
     25 H2          1.2049    1.8893    0.1760 H         1 <0>         0.0543
     26 H3         -0.4259    1.8724   -0.5370 H         1 <0>         0.0542
     27 H4         -0.2277    1.8549    1.2318 H         1 <0>         0.0537
     28 H5          0.8283   -0.3843    1.0913 H         1 <0>         0.0614
     29 H6         -0.8026   -0.4012    0.3783 H         1 <0>         0.0607
     30 H7          0.1831   -0.1430   -1.8823 H         1 <0>         0.0676
     31 H8          1.8139   -0.1261   -1.1693 H         1 <0>         0.0693
     32 H9          1.4373   -2.3996   -0.2540 H         1 <0>         0.0716
     33 H10        -0.1935   -2.4165   -0.9670 H         1 <0>         0.0702
     34 H11         3.1914   -2.3026   -3.5980 H         1 <0>         0.0759
     35 H12         2.8521   -0.9234   -2.5190 H         1 <0>         0.0880
     36 H13         4.7638   -2.3184   -1.7023 H         1 <0>         0.0977
     37 H14         3.4089   -2.2849   -0.5528 H         1 <0>         0.1035
     38 H15        -0.0871   -6.5091   -2.4805 H         1 <0>         0.1453
     39 H16        -2.1180   -6.8389   -3.7784 H         1 <0>         0.1408
     40 H17        -0.1418   -1.3148   -3.3358 H         1 <0>         0.0997
     41 H18         1.0996   -1.9262   -4.4721 H         1 <0>         0.0997
     42 H19         1.7271   -6.6025   -2.8721 H         1 <0>         0.0741
     43 H20         3.4179   -6.6941   -2.3233 H         1 <0>         0.0787
     44 H21         2.6637   -6.5063    0.0314 H         1 <0>         0.0589
     45 H22         0.9730   -6.4148   -0.5173 H         1 <0>         0.0542
     46 H23         1.9114   -7.9059   -0.7706 H         1 <0>         0.0612
@<TRIPOS>BOND
     1    1    2 1
     2    1   25 1
     3    1   26 1
     4    1   27 1
     5    2    3 1
     6    2   28 1
     7    2   29 1
     8    3    4 1
     9    3   30 1
    10    3   31 1
    11    4    5 1
    12    4   32 1
    13    4   33 1
    14    5   11 1
    15    5   18 1
    16    5    6 1
    17    6    7 1
    18    6   34 1
    19    6   35 1
    20    7    8 1
    21    7   36 1
    22    7   37 1
    23    8    9 2
    24    8   10 1
    25   10   11 2
    26   10   23 1
    27   11   12 1
    28   12   17 ar
    29   12   13 ar
    30   13   14 ar
    31   13   38 1
    32   14   15 ar
    33   14   39 1
    34   15   21 1
    35   15   16 ar
    36   16   17 ar
    37   16   19 1
    38   17   18 1
    39   18   40 1
    40   18   41 1
    41   19   20 2
    42   20   21 1
    43   21   22 1
    44   23   24 1
    45   23   42 1
    46   23   43 1
    47   24   44 1
    48   24   45 1
    49   24   46 1
@<TRIPOS>MOLECULE
CHEMBL400334
   71    77     0     0     0
SMALL
USER_CHARGES

@<TRIPOS>ATOM
      1 C1         -0.3265    1.6716   -0.2984 C.3       1 <0>        -0.1371
      2 C2         -0.2557    0.1446   -0.2338 C.3       1 <0>        -0.0438
      3 C3         -1.6506   -0.4225   -0.0729 C.3       1 <0>        -0.1017
      4 C4         -2.2771    0.2292    1.1747 C.3       1 <0>        -0.1117
      5 C5         -1.4113   -0.0177    2.4016 C.3       1 <0>        -0.0427
      6 H1         -1.3751   -1.0929    2.5774 H         1 <0>         0.0769
      7 C6         -1.9832    0.6330    3.6279 C.ar      1 <0>        -0.0754
      8 C7         -3.3642    0.7077    3.7496 C.ar      1 <0>        -0.1026
      9 C8         -3.9410    1.2864    4.8599 C.ar      1 <0>        -0.1470
     10 C9         -3.1333    1.7974    5.8656 C.ar      1 <0>         0.1014
     11 C10        -1.7568    1.7264    5.7422 C.ar      1 <0>        -0.1480
     12 C11        -1.1764    1.1494    4.6205 C.ar      1 <0>        -0.0583
     13 C12         0.3273    1.1338    4.5427 C.3       1 <0>        -0.0815
     14 C13         0.8187    0.1758    3.4584 C.3       1 <0>        -0.1135
     15 C14         0.0256    0.4750    2.1859 C.3       1 <0>        -0.0734
     16 H2          0.0215    1.5464    1.9853 H         1 <0>         0.0880
     17 C15         0.5840   -0.2861    1.0012 C.3       1 <0>        -0.0823
     18 H3          0.4940   -1.3590    1.1712 H         1 <0>         0.0782
     19 C16         2.0012    0.0887    0.5542 C.3       1 <0>        -0.1114
     20 C17         2.0299   -0.3653   -0.9309 C.3       1 <0>        -0.1429
     21 C18         0.5572   -0.3799   -1.4117 C.3       1 <0>         0.2592
     22 C19         0.1434   -1.7523   -1.7464 C.1       1 <0>        -0.1643
     23 C20        -0.1867   -2.8469   -2.0133 C.1       1 <0>        -0.0937
     24 C21        -0.5893   -4.1820   -2.3389 C.2       1 <0>        -0.1654
     25 C22        -1.6557   -4.8602   -1.5820 C.2       1 <0>         0.4343
     26 O1         -2.3872   -4.2569   -0.8159 O.2       1 <0>        -0.4425
     27 C23        -1.7867   -6.3148   -1.8064 C.ar      1 <0>        -0.2130
     28 C24        -2.5686   -7.1077   -0.9683 C.ar      1 <0>        -0.0312
     29 C25        -2.6633   -8.4615   -1.2071 C.ar      1 <0>        -0.1425
     30 C26        -1.9840   -9.0305   -2.2746 C.ar      1 <0>        -0.0564
     31 C27        -1.2096   -8.2559   -3.1110 C.ar      1 <0>        -0.1352
     32 C28        -1.1011   -6.8865   -2.8901 C.ar      1 <0>         0.1393
     33 O2         -0.3555   -6.1214   -3.7114 O.3       1 <0>        -0.2083
     34 C29         0.0087   -4.8760   -3.3810 C.2       1 <0>         0.2178
     35 C30         1.0857   -4.2227   -4.1461 C.ar      1 <0>        -0.0742
     36 C31         2.1453   -3.6022   -3.4779 C.ar      1 <0>        -0.0706
     37 C32         3.1495   -2.9934   -4.2006 C.ar      1 <0>        -0.1220
     38 C33         3.1103   -2.9956   -5.5840 C.ar      1 <0>        -0.0917
     39 C34         2.0645   -3.6078   -6.2526 C.ar      1 <0>        -0.1219
     40 C35         1.0557   -4.2253   -5.5437 C.ar      1 <0>        -0.0765
     41 O3          0.3974    0.4767   -2.5443 O.3       1 <0>        -0.5368
     42 O4         -3.6914    2.3654    6.9668 O.3       1 <0>        -0.5004
     43 H4          0.6832    2.0814   -0.3237 H         1 <0>         0.0574
     44 H5         -0.8635    1.9726   -1.1980 H         1 <0>         0.0638
     45 H6         -0.8498    2.0485    0.5803 H         1 <0>         0.0646
     46 H7         -2.2492   -0.1875   -0.9530 H         1 <0>         0.0662
     47 H8         -1.5974   -1.5029    0.0615 H         1 <0>         0.0707
     48 H9         -2.3699    1.3028    1.0108 H         1 <0>         0.0700
     49 H10        -3.2672   -0.1947    1.3425 H         1 <0>         0.0659
     50 H11        -3.9925    0.3091    2.9669 H         1 <0>         0.1279
     51 H12        -5.0161    1.3421    4.9462 H         1 <0>         0.1271
     52 H13        -1.1282    2.1238    6.5254 H         1 <0>         0.1256
     53 H14         0.6833    2.1393    4.3184 H         1 <0>         0.0776
     54 H15         0.7311    0.8202    5.5054 H         1 <0>         0.0744
     55 H16         1.8815    0.3380    3.2786 H         1 <0>         0.0722
     56 H17         0.6516   -0.8539    3.7743 H         1 <0>         0.0660
     57 H18         2.1580    1.1646    0.6316 H         1 <0>         0.0762
     58 H19         2.7455   -0.4533    1.1375 H         1 <0>         0.0706
     59 H20         2.6109    0.3390   -1.5263 H         1 <0>         0.0822
     60 H21         2.4587   -1.3644   -1.0084 H         1 <0>         0.0711
     61 H22        -3.0970   -6.6640   -0.1375 H         1 <0>         0.1439
     62 H23        -3.2676   -9.0813   -0.5614 H         1 <0>         0.1397
     63 H24        -2.0632  -10.0928   -2.4524 H         1 <0>         0.1435
     64 H25        -0.6861   -8.7123   -3.9380 H         1 <0>         0.1459
     65 H26         2.1771   -3.5994   -2.3983 H         1 <0>         0.1285
     66 H27         3.9686   -2.5133   -3.6858 H         1 <0>         0.1325
     67 H28         3.8995   -2.5168   -6.1447 H         1 <0>         0.1306
     68 H29         2.0406   -3.6054   -7.3324 H         1 <0>         0.1328
     69 H30         0.2426   -4.7065   -6.0669 H         1 <0>         0.1317
     70 H31         0.8922    0.1928   -3.3251 H         1 <0>         0.3767
     71 H32        -3.8576    1.7438    7.6886 H         1 <0>         0.3895
@<TRIPOS>BOND
     1    1    2 1
     2    1   43 1
     3    1   44 1
     4    1   45 1
     5    2   17 1
     6    2   21 1
     7    2    3 1
     8    3    4 1
     9    3   46 1
    10    3   47 1
    11    4    5 1
    12    4   48 1
    13    4   49 1
    14    5    6 1
    15    5   15 1
    16    5    7 1
    17    7   12 ar
    18    7    8 ar
    19    8    9 ar
    20    8   50 1
    21    9   10 ar
    22    9   51 1
    23   10   11 ar
    24   10   42 1
    25   11   12 ar
    26   11   52 1
    27   12   13 1
    28   13   14 1
    29   13   53 1
    30   13   54 1
    31   14   15 1
    32   14   55 1
    33   14   56 1
    34   15   16 1
    35   15   17 1
    36   17   18 1
    37   17   19 1
    38   19   20 1
    39   19   57 1
    40   19   58 1
    41   20   21 1
    42   20   59 1
    43   20   60 1
    44   21   22 1
    45   21   41 1
    46   22   23 3
    47   23   24 1
    48   24   34 2
    49   24   25 1
    50   25   26 2
    51   25   27 1
    52   27   32 ar
    53   27   28 ar
    54   28   29 ar
    55   28   61 1
    56   29   30 ar
    57   29   62 1
    58   30   31 ar
    59   30   63 1
    60   31   32 ar
    61   31   64 1
    62   32   33 1
    63   33   34 1
    64   34   35 1
    65   35   40 ar
    66   35   36 ar
    67   36   37 ar
    68   36   65 1
    69   37   38 ar
    70   37   66 1
    71   38   39 ar
    72   38   67 1
    73   39   40 ar
    74   39   68 1
    75   40   69 1
    76   41   70 1
    77   42   71 1
@<TRIPOS>MOLECULE
CHEMBL285483
   64    68     0     0     0
SMALL
USER_CHARGES

@<TRIPOS>ATOM
      1 C1         -2.9434   -4.9650   -2.3766 C.ar      1 <0>        -0.0701
      2 C2         -3.1399   -5.8779   -3.3896 C.ar      1 <0>        -0.1460
      3 C3         -3.3604   -5.4394   -4.6895 C.ar      1 <0>         0.1210
      4 C4         -3.3841   -4.0795   -4.9733 C.ar      1 <0>        -0.1443
      5 C5         -3.1889   -3.1601   -3.9659 C.ar      1 <0>        -0.0517
      6 C6         -2.9665   -3.5968   -2.6577 C.ar      1 <0>        -0.0512
      7 C7         -2.7567   -2.6141   -1.5740 C.2       1 <0>        -0.1312
      8 C8         -3.7999   -2.3710   -0.5498 C.2       1 <0>         0.4259
      9 O1         -4.7581   -3.1109   -0.4168 O.2       1 <0>        -0.4232
     10 C9         -3.6088   -1.1810    0.2986 C.ar      1 <0>        -0.2277
     11 C10        -4.6358   -0.6999    1.1127 C.ar      1 <0>        -0.0087
     12 C11        -4.4273    0.4089    1.8815 C.ar      1 <0>        -0.1674
     13 C12        -3.1951    1.0610    1.8552 C.ar      1 <0>         0.1803
     14 C13        -2.1664    0.5944    1.0550 C.ar      1 <0>        -0.1729
     15 C14        -2.3589   -0.5349    0.2689 C.ar      1 <0>         0.1585
     16 O2         -1.3606   -1.0062   -0.5022 O.3       1 <0>        -0.2088
     17 C15        -1.5803   -1.8975   -1.4803 C.2       1 <0>         0.0604
     18 C16        -0.5321   -2.1148   -2.4935 C.2       1 <0>         0.4479
     19 O3         -0.7608   -2.8089   -3.4660 O.2       1 <0>        -0.3876
     20 C17         0.7937   -1.4909   -2.3283 C.ar      1 <0>        -0.1879
     21 C18         1.1210   -0.8453   -1.1310 C.ar      1 <0>        -0.0256
     22 C19         2.3598   -0.2648   -0.9810 C.ar      1 <0>        -0.1545
     23 C20         3.2856   -0.3191   -2.0173 C.ar      1 <0>         0.1513
     24 C21         2.9644   -0.9594   -3.2094 C.ar      1 <0>        -0.2174
     25 C22         1.7301   -1.5477   -3.3662 C.ar      1 <0>        -0.0106
     26 O4          4.5057    0.2546   -1.8651 O.3       1 <0>        -0.3238
     27 C23         5.4085    0.1619   -2.9689 C.3       1 <0>         0.0225
     28 C24         6.7222    0.8610   -2.6135 C.3       1 <0>        -0.0009
     29 N1          7.3564    0.1670   -1.4848 N.4       1 <0>        -0.3845
     30 C25         8.5354    0.9239   -1.0470 C.3       1 <0>        -0.0071
     31 C26         9.1530    0.2489    0.1796 C.3       1 <0>        -0.1466
     32 C27         9.5680   -1.1793   -0.1853 C.3       1 <0>        -0.1393
     33 C28         8.3454   -1.9372   -0.7108 C.3       1 <0>        -0.1454
     34 C29         7.7577   -1.1812   -1.9043 C.3       1 <0>        -0.0136
     35 O5         -3.0025    2.1644    2.6215 O.3       1 <0>        -0.4897
     36 O6         -3.5527   -6.3425   -5.6854 O.3       1 <0>        -0.4996
     37 H1         -2.7762   -5.3066   -1.3658 H         1 <0>         0.1253
     38 H2         -3.1222   -6.9358   -3.1731 H         1 <0>         0.1328
     39 H3         -3.5554   -3.7426   -5.9850 H         1 <0>         0.1318
     40 H4         -3.2071   -2.1032   -4.1874 H         1 <0>         0.1211
     41 H5         -5.5915   -1.2025    1.1340 H         1 <0>         0.1509
     42 H6         -5.2201    0.7828    2.5123 H         1 <0>         0.1477
     43 H7         -1.2161    1.1075    1.0415 H         1 <0>         0.1510
     44 H8          0.4025   -0.8023   -0.3258 H         1 <0>         0.1614
     45 H9          2.6132    0.2341   -0.0572 H         1 <0>         0.1423
     46 H10         3.6862   -0.9986   -4.0119 H         1 <0>         0.1368
     47 H11         1.4832   -2.0486   -4.2906 H         1 <0>         0.1455
     48 H12         5.6038   -0.8871   -3.1915 H         1 <0>         0.0900
     49 H13         4.9659    0.6421   -3.8416 H         1 <0>         0.1131
     50 H14         7.3899    0.8395   -3.4748 H         1 <0>         0.1506
     51 H15         6.5198    1.8956   -2.3365 H         1 <0>         0.1436
     52 H16         9.2684    0.9522   -1.8532 H         1 <0>         0.1295
     53 H17         8.2390    1.9410   -0.7907 H         1 <0>         0.1314
     54 H18        10.0292    0.8114    0.5020 H         1 <0>         0.1133
     55 H19         8.4209    0.2203    0.9866 H         1 <0>         0.0880
     56 H20        10.3375   -1.1495   -0.9567 H         1 <0>         0.0823
     57 H21         9.9566   -1.6833    0.6996 H         1 <0>         0.0949
     58 H22         8.6443   -2.9372   -1.0248 H         1 <0>         0.1126
     59 H23         7.5965   -2.0112    0.0777 H         1 <0>         0.0879
     60 H24         6.8871   -1.7181   -2.2810 H         1 <0>         0.1272
     61 H25         8.5072   -1.1080   -2.6923 H         1 <0>         0.1308
     62 H26        -2.6627    1.9742    3.5066 H         1 <0>         0.4044
     63 H27        -4.4783   -6.5875   -5.8207 H         1 <0>         0.3946
     64 H28         6.7002    0.0992   -0.7213 H         1 <0>         0.4292
@<TRIPOS>BOND
     1    1    6 ar
     2    1    2 ar
     3    1   37 1
     4    2    3 ar
     5    2   38 1
     6    3    4 ar
     7    3   36 1
     8    4    5 ar
     9    4   39 1
    10    5    6 ar
    11    5   40 1
    12    6    7 1
    13    7   17 2
    14    7    8 1
    15    8    9 2
    16    8   10 1
    17   10   15 ar
    18   10   11 ar
    19   11   12 ar
    20   11   41 1
    21   12   13 ar
    22   12   42 1
    23   13   14 ar
    24   13   35 1
    25   14   15 ar
    26   14   43 1
    27   15   16 1
    28   16   17 1
    29   17   18 1
    30   18   19 2
    31   18   20 1
    32   20   25 ar
    33   20   21 ar
    34   21   22 ar
    35   21   44 1
    36   22   23 ar
    37   22   45 1
    38   23   24 ar
    39   23   26 1
    40   24   25 ar
    41   24   46 1
    42   25   47 1
    43   26   27 1
    44   27   28 1
    45   27   48 1
    46   27   49 1
    47   28   29 1
    48   28   50 1
    49   28   51 1
    50   29   34 1
    51   29   30 1
    52   29   64 1
    53   30   31 1
    54   30   52 1
    55   30   53 1
    56   31   32 1
    57   31   54 1
    58   31   55 1
    59   32   33 1
    60   32   56 1
    61   32   57 1
    62   33   34 1
    63   33   58 1
    64   33   59 1
    65   34   60 1
    66   34   61 1
    67   35   62 1
    68   36   63 1
@<TRIPOS>MOLECULE
CHEMBL204315
   38    40     0     0     0
SMALL
USER_CHARGES

@<TRIPOS>ATOM
      1 C1         -0.1137    1.5395    0.1153 C.3       1 <0>        -0.1791
      2 C2         -0.0512    0.0121    0.0500 C.3       1 <0>         0.1384
      3 C3         -1.4535   -0.5747    0.2581 C.3       1 <0>        -0.1275
      4 C4         -1.3779   -2.0951    0.1199 C.3       1 <0>        -0.0784
      5 C5         -0.2888   -2.6507    0.9991 C.ar      1 <0>        -0.1110
      6 C6         -0.3307   -3.9891    1.3531 C.ar      1 <0>        -0.0919
      7 C7          0.6551   -4.5290    2.1559 C.ar      1 <0>        -0.1415
      8 C8          1.6920   -3.7354    2.6120 C.ar      1 <0>        -0.0865
      9 C9          1.7410   -2.4004    2.2648 C.ar      1 <0>        -0.1789
     10 C10         0.7489   -1.8543    1.4574 C.ar      1 <0>         0.1745
     11 N1          0.8124   -0.4969    1.1241 N.pl3     1 <0>        -0.9304
     12 S1          1.8446    0.5193    1.9268 S.o2      1 <0>         2.6830
     13 O1          1.2908    1.8240    1.8250 O.2       1 <0>        -0.9368
     14 O2          2.1265   -0.0932    3.1776 O.2       1 <0>        -0.9422
     15 C11         3.3583    0.5430    1.0252 C.ar      1 <0>        -0.6896
     16 C12         4.3509   -0.3736    1.3189 C.ar      1 <0>        -0.0024
     17 C13         5.5388   -0.3568    0.6138 C.ar      1 <0>        -0.1641
     18 C14         5.7350    0.5805   -0.3901 C.ar      1 <0>         0.1691
     19 C15         4.7373    1.4988   -0.6831 C.ar      1 <0>        -0.1653
     20 C16         3.5492    1.4745    0.0214 C.ar      1 <0>        -0.0030
     21 O3          6.9028    0.5993   -1.0848 O.3       1 <0>        -0.4962
     22 H1          0.8822    1.9512   -0.0483 H         1 <0>         0.0742
     23 H2         -0.7905    1.9087   -0.6552 H         1 <0>         0.0736
     24 H3         -0.4773    1.8466    1.0959 H         1 <0>         0.0935
     25 H4          0.3407   -0.3001   -0.9180 H         1 <0>         0.0859
     26 H5         -1.8136   -0.3159    1.2538 H         1 <0>         0.0758
     27 H6         -2.1328   -0.1730   -0.4938 H         1 <0>         0.0881
     28 H7         -2.3335   -2.5313    0.4110 H         1 <0>         0.0824
     29 H8         -1.1692   -2.3526   -0.9185 H         1 <0>         0.0785
     30 H9         -1.1382   -4.6134    1.0000 H         1 <0>         0.1265
     31 H10         0.6160   -5.5733    2.4284 H         1 <0>         0.1248
     32 H11         2.4620   -4.1596    3.2393 H         1 <0>         0.1291
     33 H12         2.5502   -1.7797    2.6201 H         1 <0>         0.1500
     34 H13         4.1977   -1.1030    2.1005 H         1 <0>         0.1445
     35 H14         6.3141   -1.0725    0.8441 H         1 <0>         0.1427
     36 H15         4.8876    2.2294   -1.4641 H         1 <0>         0.1425
     37 H16         2.7704    2.1863   -0.2094 H         1 <0>         0.1463
     38 H17         6.8985    0.0439   -1.8764 H         1 <0>         0.4018
@<TRIPOS>BOND
     1    1    2 1
     2    1   22 1
     3    1   23 1
     4    1   24 1
     5    2   11 1
     6    2    3 1
     7    2   25 1
     8    3    4 1
     9    3   26 1
    10    3   27 1
    11    4    5 1
    12    4   28 1
    13    4   29 1
    14    5   10 ar
    15    5    6 ar
    16    6    7 ar
    17    6   30 1
    18    7    8 ar
    19    7   31 1
    20    8    9 ar
    21    8   32 1
    22    9   10 ar
    23    9   33 1
    24   10   11 1
    25   11   12 1
    26   12   13 2
    27   12   14 2
    28   12   15 1
    29   15   20 ar
    30   15   16 ar
    31   16   17 ar
    32   16   34 1
    33   17   18 ar
    34   17   35 1
    35   18   19 ar
    36   18   21 1
    37   19   20 ar
    38   19   36 1
    39   20   37 1
    40   21   38 1
@<TRIPOS>MOLECULE
CHEMBL204315__1
   38    40     0     0     0
SMALL
USER_CHARGES

@<TRIPOS>ATOM
      1 C1         -0.0173    1.5272    0.0121 C.3       1 <0>        -0.1694
      2 C2          0.0020   -0.0026    0.0027 C.3       1 <0>         0.1295
      3 C3          0.7538   -0.5052   -1.2368 C.3       1 <0>        -0.1258
      4 C4          2.1578    0.0992   -1.2414 C.3       1 <0>        -0.0786
      5 C5          2.8348   -0.1306    0.0840 C.ar      1 <0>        -0.1098
      6 C6          4.2163   -0.0585    0.1522 C.ar      1 <0>        -0.0900
      7 C7          4.8664   -0.2616    1.3539 C.ar      1 <0>        -0.1420
      8 C8          4.1409   -0.5386    2.4983 C.ar      1 <0>        -0.0842
      9 C9          2.7639   -0.6132    2.4391 C.ar      1 <0>        -0.1784
     10 C10         2.1072   -0.4101    1.2302 C.ar      1 <0>         0.1803
     11 N1          0.7114   -0.4986    1.1899 N.pl3     1 <0>        -0.9308
     12 S1         -0.1275   -1.1507    2.4601 S.o2      1 <0>         2.6853
     13 O1         -1.4099   -1.5049    1.9608 O.2       1 <0>        -0.9430
     14 O2          0.7376   -2.0948    3.0762 O.2       1 <0>        -0.9393
     15 C11        -0.3825    0.1392    3.6331 C.ar      1 <0>        -0.6893
     16 C12         0.5534    0.3643    4.6256 C.ar      1 <0>        -0.0037
     17 C13         0.3556    1.3747    5.5467 C.ar      1 <0>        -0.1636
     18 C14        -0.7830    2.1640    5.4750 C.ar      1 <0>         0.1696
     19 C15        -1.7203    1.9364    4.4778 C.ar      1 <0>        -0.1650
     20 C16        -1.5153    0.9281    3.5560 C.ar      1 <0>        -0.0006
     21 O3         -0.9801    3.1583    6.3802 O.3       1 <0>        -0.4962
     22 H1          1.0056    1.9035    0.0041 H         1 <0>         0.0697
     23 H2         -0.5446    1.8893   -0.8705 H         1 <0>         0.0773
     24 H3         -0.5267    1.8786    0.9093 H         1 <0>         0.0587
     25 H4         -1.0189   -0.3845   -0.0037 H         1 <0>         0.1149
     26 H5          0.8243   -1.5925   -1.2052 H         1 <0>         0.0755
     27 H6          0.2209   -0.1979   -2.1367 H         1 <0>         0.0885
     28 H7          2.7472   -0.3648   -2.0322 H         1 <0>         0.0815
     29 H8          2.0882    1.1706   -1.4294 H         1 <0>         0.0813
     30 H9          4.7879    0.1572   -0.7384 H         1 <0>         0.1267
     31 H10         5.9439   -0.2043    1.3998 H         1 <0>         0.1251
     32 H11         4.6510   -0.6960    3.4371 H         1 <0>         0.1290
     33 H12         2.1962   -0.8292    3.3321 H         1 <0>         0.1386
     34 H13         1.4396   -0.2504    4.6811 H         1 <0>         0.1461
     35 H14         1.0866    1.5497    6.3223 H         1 <0>         0.1427
     36 H15        -2.6075    2.5495    4.4199 H         1 <0>         0.1423
     37 H16        -2.2425    0.7534    2.7768 H         1 <0>         0.1456
     38 H17        -0.6116    4.0117    6.1135 H         1 <0>         0.4018
@<TRIPOS>BOND
     1    1    2 1
     2    1   22 1
     3    1   23 1
     4    1   24 1
     5    2   11 1
     6    2    3 1
     7    2   25 1
     8    3    4 1
     9    3   26 1
    10    3   27 1
    11    4    5 1
    12    4   28 1
    13    4   29 1
    14    5   10 ar
    15    5    6 ar
    16    6    7 ar
    17    6   30 1
    18    7    8 ar
    19    7   31 1
    20    8    9 ar
    21    8   32 1
    22    9   10 ar
    23    9   33 1
    24   10   11 1
    25   11   12 1
    26   12   13 2
    27   12   14 2
    28   12   15 1
    29   15   20 ar
    30   15   16 ar
    31   16   17 ar
    32   16   34 1
    33   17   18 ar
    34   17   35 1
    35   18   19 ar
    36   18   21 1
    37   19   20 ar
    38   19   36 1
    39   20   37 1
    40   21   38 1
@<TRIPOS>MOLECULE
CHEMBL378581
   32    34     0     0     0
SMALL
USER_CHARGES

@<TRIPOS>ATOM
      1 C1         -0.0167    1.3769    0.0096 C.ar      1 <0>        -0.1074
      2 C2          1.1703    2.0866    0.0021 C.ar      1 <0>        -0.0958
      3 C3          2.3799    1.4169   -0.0135 C.ar      1 <0>        -0.1050
      4 C4          2.4062    0.0351   -0.0216 C.ar      1 <0>        -0.0209
      5 C5          1.2148   -0.6807   -0.0136 C.ar      1 <0>         0.1498
      6 C6          0.0021   -0.0041    0.0020 C.ar      1 <0>        -0.1013
      7 N1          1.2372   -2.0780   -0.0222 N.pl3     1 <0>        -0.9521
      8 C7          1.1345   -2.8602   -1.2694 C.3       1 <0>         0.1141
      9 C8          2.4380   -3.6072   -1.4977 C.3       1 <0>        -0.1285
     10 C9          2.8251   -4.5159   -0.3685 C.ar      1 <0>         0.0330
     11 C10         3.6179   -5.6173   -0.6777 C.ar      1 <0>        -0.1663
     12 C11         4.0345   -6.4880    0.3127 C.ar      1 <0>         0.1659
     13 C12         3.6644   -6.2665    1.6316 C.ar      1 <0>        -0.1601
     14 C13         2.8710   -5.1800    1.9393 C.ar      1 <0>        -0.0048
     15 C14         2.4462   -4.3187    0.9423 C.ar      1 <0>        -0.6638
     16 S1          1.3887   -2.9746    1.3752 S.o2      1 <0>         2.6803
     17 O1          2.0988   -2.1719    2.3083 O.2       1 <0>        -0.9365
     18 O2          0.1103   -3.5294    1.6529 O.2       1 <0>        -0.9443
     19 O3          4.8057   -7.5607   -0.0058 O.3       1 <0>        -0.4965
     20 Cl1         3.9251   -0.8053   -0.0422 Cl        1 <0>        -0.0554
     21 H1         -0.9595    1.9034    0.0259 H         1 <0>         0.1381
     22 H2          1.1524    3.1664    0.0080 H         1 <0>         0.1387
     23 H3          3.3050    1.9742   -0.0197 H         1 <0>         0.1407
     24 H4         -0.9255   -0.5573    0.0082 H         1 <0>         0.1411
     25 H5          0.3153   -3.5743   -1.1853 H         1 <0>         0.0919
     26 H6          0.9485   -2.1878   -2.1069 H         1 <0>         0.1093
     27 H7          2.3427   -4.2026   -2.4057 H         1 <0>         0.1095
     28 H8          3.2347   -2.8783   -1.6460 H         1 <0>         0.1037
     29 H9          3.9113   -5.7936   -1.7021 H         1 <0>         0.1397
     30 H10         3.9946   -6.9381    2.4103 H         1 <0>         0.1439
     31 H11         2.5799   -5.0006    2.9637 H         1 <0>         0.1383
     32 H12         5.7561   -7.3845    0.0240 H         1 <0>         0.4009
@<TRIPOS>BOND
     1    1    6 ar
     2    1    2 ar
     3    1   21 1
     4    2    3 ar
     5    2   22 1
     6    3    4 ar
     7    3   23 1
     8    4    5 ar
     9    4   20 1
    10    5    6 ar
    11    5    7 1
    12    6   24 1
    13    7   16 1
    14    7    8 1
    15    8    9 1
    16    8   25 1
    17    8   26 1
    18    9   10 1
    19    9   27 1
    20    9   28 1
    21   10   15 ar
    22   10   11 ar
    23   11   12 ar
    24   11   29 1
    25   12   13 ar
    26   12   19 1
    27   13   14 ar
    28   13   30 1
    29   14   15 ar
    30   14   31 1
    31   15   16 1
    32   16   17 2
    33   16   18 2
    34   19   32 1
@<TRIPOS>MOLECULE
CHEMBL35073
   63    67     0     0     0
SMALL
USER_CHARGES

@<TRIPOS>ATOM
      1 C1         -1.8255    0.2471    1.1173 C.ar      1 <0>        -0.0734
      2 C2         -1.8017    1.6262    1.1026 C.ar      1 <0>        -0.1430
      3 C3         -0.8367    2.2974    0.3646 C.ar      1 <0>         0.1108
      4 C4          0.1074    1.5841   -0.3609 C.ar      1 <0>        -0.1456
      5 C5          0.0891    0.2048   -0.3510 C.ar      1 <0>        -0.0829
      6 C6         -0.8786   -0.4726    0.3896 C.ar      1 <0>        -0.0219
      7 C7         -0.9011   -1.9548    0.4030 C.2       1 <0>        -0.2657
      8 C8         -0.6530   -2.6667    1.6075 C.2       1 <0>         0.4406
      9 O1         -0.4176   -2.0826    2.6525 O.2       1 <0>        -0.4491
     10 C9         -0.6918   -4.1394    1.5444 C.ar      1 <0>        -0.2228
     11 C10        -0.4602   -4.9164    2.6803 C.ar      1 <0>        -0.0096
     12 C11        -0.5032   -6.2787    2.5909 C.ar      1 <0>        -0.1641
     13 C12        -0.7765   -6.8956    1.3724 C.ar      1 <0>         0.1754
     14 C13        -1.0080   -6.1380    0.2364 C.ar      1 <0>        -0.1673
     15 C14        -0.9686   -4.7527    0.3115 C.ar      1 <0>         0.1686
     16 O2         -1.1931   -3.9978   -0.7844 O.3       1 <0>        -0.2459
     17 C15        -1.1689   -2.6597   -0.7534 C.2       1 <0>         0.3457
     18 O3         -1.4090   -1.9771   -1.8918 O.3       1 <0>        -0.1921
     19 C16        -1.5714   -2.6873   -3.0397 C.ar      1 <0>         0.0358
     20 C17        -2.7676   -3.3459   -3.2846 C.ar      1 <0>        -0.0713
     21 C18        -2.9324   -4.0674   -4.4507 C.ar      1 <0>        -0.1266
     22 C19        -1.9018   -4.1339   -5.3768 C.ar      1 <0>         0.1288
     23 C20        -0.7057   -3.4754   -5.1320 C.ar      1 <0>        -0.1895
     24 C21        -0.5429   -2.7488   -3.9688 C.ar      1 <0>        -0.0638
     25 O4         -2.0638   -4.8449   -6.5243 O.3       1 <0>        -0.3240
     26 C22        -0.9613   -4.8702   -7.4330 C.3       1 <0>         0.0229
     27 C23        -1.3278   -5.7129   -8.6563 C.3       1 <0>        -0.0008
     28 N1         -2.4404   -5.0763   -9.3738 N.4       1 <0>        -0.3847
     29 C24        -2.8968   -5.9626  -10.4512 C.3       1 <0>        -0.0070
     30 C25        -4.1076   -5.3406  -11.1501 C.3       1 <0>        -0.1468
     31 C26        -3.7097   -3.9834  -11.7375 C.3       1 <0>        -0.1392
     32 C27        -3.1657   -3.0929  -10.6167 C.3       1 <0>        -0.1456
     33 C28        -1.9897   -3.7982   -9.9376 C.3       1 <0>        -0.0134
     34 O5         -0.8158   -8.2505    1.2975 O.3       1 <0>        -0.4892
     35 O6         -0.8164    3.6566    0.3519 O.3       1 <0>        -0.5007
     36 H1         -2.5739   -0.2746    1.6953 H         1 <0>         0.1257
     37 H2         -2.5350    2.1844    1.6657 H         1 <0>         0.1320
     38 H3          0.8569    2.1095   -0.9341 H         1 <0>         0.1301
     39 H4          0.8235   -0.3496   -0.9163 H         1 <0>         0.1216
     40 H5         -0.2472   -4.4420    3.6269 H         1 <0>         0.1534
     41 H6         -0.3240   -6.8806    3.4695 H         1 <0>         0.1482
     42 H7         -1.2190   -6.6236   -0.7049 H         1 <0>         0.1488
     43 H8         -3.5697   -3.2948   -2.5633 H         1 <0>         0.1462
     44 H9         -3.8636   -4.5801   -4.6414 H         1 <0>         0.1453
     45 H10         0.0966   -3.5272   -5.8530 H         1 <0>         0.1400
     46 H11         0.3867   -2.2324   -3.7802 H         1 <0>         0.1451
     47 H12        -0.7274   -3.8536   -7.7489 H         1 <0>         0.0893
     48 H13        -0.0930   -5.3059   -6.9387 H         1 <0>         0.1121
     49 H14        -0.4646   -5.7880   -9.3176 H         1 <0>         0.1506
     50 H15        -1.6266   -6.7104   -8.3341 H         1 <0>         0.1436
     51 H16        -2.0920   -6.1000  -11.1734 H         1 <0>         0.1295
     52 H17        -3.1766   -6.9291  -10.0320 H         1 <0>         0.1313
     53 H18        -4.4438   -5.9993  -11.9508 H         1 <0>         0.1134
     54 H19        -4.9132   -5.2029  -10.4288 H         1 <0>         0.0880
     55 H20        -2.9398   -4.1261  -12.4958 H         1 <0>         0.0823
     56 H21        -4.5828   -3.5108  -12.1872 H         1 <0>         0.0951
     57 H22        -2.8286   -2.1450  -11.0361 H         1 <0>         0.1127
     58 H23        -3.9517   -2.9086   -9.8843 H         1 <0>         0.0880
     59 H24        -1.5999   -3.1668   -9.1392 H         1 <0>         0.1271
     60 H25        -1.2043   -3.9818  -10.6707 H         1 <0>         0.1308
     61 H26        -1.6906   -8.6283    1.4620 H         1 <0>         0.4040
     62 H27        -0.2732    4.0483    1.0495 H         1 <0>         0.3938
     63 H28        -3.2016   -4.9101   -8.7326 H         1 <0>         0.4292
@<TRIPOS>BOND
     1    1    6 ar
     2    1    2 ar
     3    1   36 1
     4    2    3 ar
     5    2   37 1
     6    3    4 ar
     7    3   35 1
     8    4    5 ar
     9    4   38 1
    10    5    6 ar
    11    5   39 1
    12    6    7 1
    13    7   17 2
    14    7    8 1
    15    8    9 2
    16    8   10 1
    17   10   15 ar
    18   10   11 ar
    19   11   12 ar
    20   11   40 1
    21   12   13 ar
    22   12   41 1
    23   13   14 ar
    24   13   34 1
    25   14   15 ar
    26   14   42 1
    27   15   16 1
    28   16   17 1
    29   17   18 1
    30   18   19 1
    31   19   24 ar
    32   19   20 ar
    33   20   21 ar
    34   20   43 1
    35   21   22 ar
    36   21   44 1
    37   22   23 ar
    38   22   25 1
    39   23   24 ar
    40   23   45 1
    41   24   46 1
    42   25   26 1
    43   26   27 1
    44   26   47 1
    45   26   48 1
    46   27   28 1
    47   27   49 1
    48   27   50 1
    49   28   33 1
    50   28   29 1
    51   28   63 1
    52   29   30 1
    53   29   51 1
    54   29   52 1
    55   30   31 1
    56   30   53 1
    57   30   54 1
    58   31   32 1
    59   31   55 1
    60   31   56 1
    61   32   33 1
    62   32   57 1
    63   32   58 1
    64   33   59 1
    65   33   60 1
    66   34   61 1
    67   35   62 1
@<TRIPOS>MOLECULE
CHEMBL71668
   91    95     0     0     0
SMALL
USER_CHARGES

@<TRIPOS>ATOM
      1 C1         -0.0184    1.5028    0.0103 C.3       1 <0>        -0.1270
      2 C2          0.0021   -0.0041    0.0020 C.ar      1 <0>        -0.0247
      3 C3          0.0057   -0.6887   -1.1989 C.ar      1 <0>        -0.1425
      4 C4          0.0245   -2.0709   -1.2065 C.ar      1 <0>        -0.0096
      5 C5          0.0400   -2.7685   -0.0132 C.ar      1 <0>        -0.7102
      6 C6          0.0373   -2.0839    1.1877 C.ar      1 <0>        -0.0209
      7 C7          0.0229   -0.7016    1.1953 C.ar      1 <0>        -0.1426
      8 S1          0.0628   -4.5303   -0.0229 S.o2      1 <0>         2.6987
      9 O1         -0.4759   -4.9503    1.2232 O.2       1 <0>        -0.9674
     10 O2         -0.4897   -4.9367   -1.2674 O.2       1 <0>        -0.9342
     11 O3          1.5224   -4.9615   -0.0333 O.3       1 <0>        -0.7279
     12 C8          2.1825   -4.8089    1.2248 C.3       1 <0>         0.0602
     13 C9          3.6357   -5.2704    1.0976 C.3       1 <0>        -0.1186
     14 C10         4.3425   -5.1070    2.4447 C.3       1 <0>        -0.1220
     15 C11         5.7957   -5.5685    2.3174 C.3       1 <0>        -0.1194
     16 C12         6.5024   -5.4052    3.6645 C.3       1 <0>        -0.1208
     17 C13         7.9556   -5.8666    3.5373 C.3       1 <0>        -0.1205
     18 C14         8.6624   -5.7033    4.8844 C.3       1 <0>        -0.1199
     19 C15        10.1156   -6.1647    4.7571 C.3       1 <0>        -0.1193
     20 C16        10.8224   -6.0014    6.1042 C.3       1 <0>        -0.1195
     21 C17        12.2756   -6.4628    5.9769 C.3       1 <0>        -0.1201
     22 C18        12.9791   -6.3003    7.3178 C.3       1 <0>        -0.0728
     23 H1         12.8769   -5.2650    7.6577 H         1 <0>         0.0685
     24 C19        12.2928   -7.2262    8.3336 C.3       1 <0>        -0.1048
     25 C20        12.8628   -7.0834    9.7226 C.3       1 <0>        -0.0461
     26 C21        12.5465   -5.7156   10.3533 C.3       1 <0>         0.1089
     27 H2         12.6587   -4.9167    9.6192 H         1 <0>         0.0603
     28 C22        13.5968   -5.5708   11.4767 C.3       1 <0>        -0.1575
     29 C23        14.7590   -6.5156   11.1224 C.3       1 <0>        -0.1200
     30 C24        14.4021   -7.1640    9.7600 C.3       1 <0>        -0.0720
     31 C25        14.9947   -6.2804    8.6688 C.3       1 <0>        -0.0799
     32 C26        14.4629   -6.6741    7.2850 C.3       1 <0>        -0.0327
     33 C27        15.2435   -5.9811    6.2080 C.ar      1 <0>        -0.0659
     34 C28        14.9315   -6.2002    4.8719 C.ar      1 <0>        -0.0987
     35 C29        15.5533   -5.5046    3.8564 C.ar      1 <0>        -0.1540
     36 C30        16.5657   -4.6048    4.1556 C.ar      1 <0>         0.1058
     37 C31        16.9600   -4.4598    5.4733 C.ar      1 <0>        -0.1524
     38 C32        16.3393   -5.1797    6.4808 C.ar      1 <0>        -0.0612
     39 C33        16.9753   -5.1159    7.8481 C.3       1 <0>        -0.0840
     40 C34        16.5198   -6.3365    8.6578 C.3       1 <0>        -0.1169
     41 O4         17.1575   -3.8787    3.1738 O.3       1 <0>        -0.4995
     42 O5         11.2243   -5.7074   10.8980 O.3       1 <0>        -0.5597
     43 C35        12.2840   -8.1893   10.6109 C.3       1 <0>        -0.1330
     44 H3          1.0042    1.8801    0.0026 H         1 <0>         0.0809
     45 H4         -0.5455    1.8639   -0.8728 H         1 <0>         0.0746
     46 H5         -0.5286    1.8543    0.9071 H         1 <0>         0.0743
     47 H6         -0.0064   -0.1436   -2.1312 H         1 <0>         0.1352
     48 H7          0.0266   -2.6057   -2.1448 H         1 <0>         0.1433
     49 H8          0.0491   -2.6289    2.1200 H         1 <0>         0.1414
     50 H9          0.0245   -0.1667    2.1335 H         1 <0>         0.1347
     51 H10         2.1589   -3.7607    1.5228 H         1 <0>         0.0838
     52 H11         1.6743   -5.4121    1.9772 H         1 <0>         0.1039
     53 H12         3.6593   -6.3186    0.7996 H         1 <0>         0.0830
     54 H13         4.1438   -4.6672    0.3452 H         1 <0>         0.0804
     55 H14         4.3189   -4.0588    2.7427 H         1 <0>         0.0676
     56 H15         3.8343   -5.7102    3.1971 H         1 <0>         0.0704
     57 H16         5.8193   -6.6167    2.0194 H         1 <0>         0.0653
     58 H17         6.3038   -4.9653    1.5650 H         1 <0>         0.0640
     59 H18         6.4788   -4.3570    3.9625 H         1 <0>         0.0612
     60 H19         5.9943   -6.0083    4.4169 H         1 <0>         0.0625
     61 H20         7.9792   -6.9148    3.2393 H         1 <0>         0.0612
     62 H21         8.4638   -5.2635    2.7849 H         1 <0>         0.0603
     63 H22         8.6388   -4.6551    5.1823 H         1 <0>         0.0595
     64 H23         8.1543   -6.3064    5.6368 H         1 <0>         0.0608
     65 H24        10.1392   -7.2129    4.4591 H         1 <0>         0.0603
     66 H25        10.6238   -5.5616    4.0047 H         1 <0>         0.0592
     67 H26        10.7988   -4.9532    6.4022 H         1 <0>         0.0583
     68 H27        10.3142   -6.6046    6.8566 H         1 <0>         0.0653
     69 H28        12.2992   -7.5111    5.6790 H         1 <0>         0.0615
     70 H29        12.7838   -5.8597    5.2245 H         1 <0>         0.0715
     71 H30        11.2296   -6.9908    8.3577 H         1 <0>         0.0737
     72 H31        12.4197   -8.2577    8.0028 H         1 <0>         0.0632
     73 H32        13.9555   -4.5412   11.5192 H         1 <0>         0.0623
     74 H33        13.1642   -5.8497   12.4364 H         1 <0>         0.0731
     75 H34        15.6857   -5.9458   11.0382 H         1 <0>         0.0692
     76 H35        14.8679   -7.2829   11.8897 H         1 <0>         0.0653
     77 H36        14.7549   -8.1930    9.6924 H         1 <0>         0.0861
     78 H37        14.6887   -5.2427    8.8575 H         1 <0>         0.0701
     79 H38        14.5598   -7.7535    7.1684 H         1 <0>         0.0821
     80 H39        14.2447   -6.9855    4.5907 H         1 <0>         0.1255
     81 H40        15.2542   -5.6621    2.8303 H         1 <0>         0.1267
     82 H41        17.7612   -3.7763    5.7193 H         1 <0>         0.1252
     83 H42        18.0561   -5.1392    7.7444 H         1 <0>         0.0768
     84 H43        16.6619   -4.2090    8.3543 H         1 <0>         0.0766
     85 H44        16.9168   -6.2795    9.6655 H         1 <0>         0.0746
     86 H45        16.8579   -7.2456    8.1639 H         1 <0>         0.0682
     87 H46        16.7287   -3.0297    2.9996 H         1 <0>         0.3904
     88 H47        10.9732   -4.8685   11.3082 H         1 <0>         0.3753
     89 H48        12.5626   -9.1627   10.2072 H         1 <0>         0.0496
     90 H49        12.6799   -8.0882   11.6214 H         1 <0>         0.0542
     91 H50        11.1976   -8.1038   10.6360 H         1 <0>         0.0629
@<TRIPOS>BOND
     1    1    2 1
     2    1   44 1
     3    1   45 1
     4    1   46 1
     5    2    7 ar
     6    2    3 ar
     7    3    4 ar
     8    3   47 1
     9    4    5 ar
    10    4   48 1
    11    5    6 ar
    12    5    8 1
    13    6    7 ar
    14    6   49 1
    15    7   50 1
    16    8    9 2
    17    8   10 2
    18    8   11 1
    19   11   12 1
    20   12   13 1
    21   12   51 1
    22   12   52 1
    23   13   14 1
    24   13   53 1
    25   13   54 1
    26   14   15 1
    27   14   55 1
    28   14   56 1
    29   15   16 1
    30   15   57 1
    31   15   58 1
    32   16   17 1
    33   16   59 1
    34   16   60 1
    35   17   18 1
    36   17   61 1
    37   17   62 1
    38   18   19 1
    39   18   63 1
    40   18   64 1
    41   19   20 1
    42   19   65 1
    43   19   66 1
    44   20   21 1
    45   20   67 1
    46   20   68 1
    47   21   22 1
    48   21   69 1
    49   21   70 1
    50   22   23 1
    51   22   32 1
    52   22   24 1
    53   24   25 1
    54   24   71 1
    55   24   72 1
    56   25   30 1
    57   25   26 1
    58   25   43 1
    59   26   27 1
    60   26   28 1
    61   26   42 1
    62   28   29 1
    63   28   73 1
    64   28   74 1
    65   29   30 1
    66   29   75 1
    67   29   76 1
    68   30   31 1
    69   30   77 1
    70   31   40 1
    71   31   32 1
    72   31   78 1
    73   32   33 1
    74   32   79 1
    75   33   38 ar
    76   33   34 ar
    77   34   35 ar
    78   34   80 1
    79   35   36 ar
    80   35   81 1
    81   36   37 ar
    82   36   41 1
    83   37   38 ar
    84   37   82 1
    85   38   39 1
    86   39   40 1
    87   39   83 1
    88   39   84 1
    89   40   85 1
    90   40   86 1
    91   41   87 1
    92   42   88 1
    93   43   89 1
    94   43   90 1
    95   43   91 1
@<TRIPOS>MOLECULE
CHEMBL71668__1
   91    95     0     0     0
SMALL
USER_CHARGES

@<TRIPOS>ATOM
      1 C1         -0.0184    1.5028    0.0103 C.3       1 <0>        -0.1270
      2 C2          0.0021   -0.0041    0.0020 C.ar      1 <0>        -0.0247
      3 C3          0.0057   -0.6887   -1.1989 C.ar      1 <0>        -0.1425
      4 C4          0.0245   -2.0709   -1.2065 C.ar      1 <0>        -0.0096
      5 C5          0.0400   -2.7685   -0.0132 C.ar      1 <0>        -0.7102
      6 C6          0.0373   -2.0839    1.1877 C.ar      1 <0>        -0.0209
      7 C7          0.0229   -0.7016    1.1953 C.ar      1 <0>        -0.1426
      8 S1          0.0628   -4.5303   -0.0229 S.o2      1 <0>         2.6987
      9 O1         -0.4759   -4.9503    1.2232 O.2       1 <0>        -0.9675
     10 O2         -0.4897   -4.9367   -1.2674 O.2       1 <0>        -0.9342
     11 O3          1.5224   -4.9615   -0.0333 O.3       1 <0>        -0.7278
     12 C8          2.1825   -4.8089    1.2248 C.3       1 <0>         0.0602
     13 C9          3.6357   -5.2704    1.0976 C.3       1 <0>        -0.1187
     14 C10         4.3425   -5.1070    2.4447 C.3       1 <0>        -0.1219
     15 C11         5.7957   -5.5685    2.3174 C.3       1 <0>        -0.1196
     16 C12         6.5024   -5.4052    3.6645 C.3       1 <0>        -0.1204
     17 C13         7.9556   -5.8666    3.5373 C.3       1 <0>        -0.1208
     18 C14         8.6624   -5.7033    4.8844 C.3       1 <0>        -0.1193
     19 C15        10.1156   -6.1647    4.7571 C.3       1 <0>        -0.1188
     20 C16        10.8224   -6.0014    6.1042 C.3       1 <0>        -0.1205
     21 C17        12.2756   -6.4628    5.9769 C.3       1 <0>        -0.1161
     22 C18        12.9802   -6.3000    7.3199 C.3       1 <0>        -0.0644
     23 H1         12.8388   -5.2277    7.6083 H         1 <0>         0.0590
     24 C19        12.3163   -7.1206    8.4047 C.3       1 <0>        -0.1035
     25 C20        12.7217   -8.5854    8.4690 C.3       1 <0>        -0.0351
     26 C21        12.4369   -9.0499    9.9295 C.3       1 <0>         0.0989
     27 H2         11.6767   -8.4091   10.3757 H         1 <0>         0.0551
     28 C22        13.7607   -8.9229   10.7007 C.3       1 <0>        -0.1576
     29 C23        14.8012   -8.3740    9.7004 C.3       1 <0>        -0.1179
     30 C24        14.2338   -8.7828    8.3257 C.3       1 <0>        -0.0680
     31 C25        14.8658   -7.9897    7.2114 C.3       1 <0>        -0.0642
     32 C26        14.4773   -6.5291    7.2272 C.3       1 <0>        -0.0262
     33 C27        15.0490   -5.8022    6.0356 C.ar      1 <0>        -0.0704
     34 C28        15.0721   -4.4132    6.0818 C.ar      1 <0>        -0.1010
     35 C29        15.5841   -3.6841    5.0304 C.ar      1 <0>        -0.1469
     36 C30        16.0796   -4.3445    3.9150 C.ar      1 <0>         0.1022
     37 C31        16.0615   -5.7274    3.8732 C.ar      1 <0>        -0.1482
     38 C32        15.5534   -6.4611    4.9389 C.ar      1 <0>        -0.0538
     39 C33        15.5981   -7.9608    4.8288 C.3       1 <0>        -0.0816
     40 C34        14.6778   -8.6303    5.8458 C.3       1 <0>        -0.1133
     41 O4         16.5823   -3.6353    2.8702 O.3       1 <0>        -0.5006
     42 O5         11.9954  -10.4086    9.9263 O.3       1 <0>        -0.5602
     43 C35        11.9302   -9.4569    7.4859 C.3       1 <0>        -0.1254
     44 H3          1.0042    1.8801    0.0026 H         1 <0>         0.0810
     45 H4         -0.5455    1.8639   -0.8728 H         1 <0>         0.0746
     46 H5         -0.5286    1.8543    0.9071 H         1 <0>         0.0743
     47 H6         -0.0064   -0.1436   -2.1312 H         1 <0>         0.1352
     48 H7          0.0266   -2.6057   -2.1448 H         1 <0>         0.1433
     49 H8          0.0491   -2.6289    2.1200 H         1 <0>         0.1414
     50 H9          0.0245   -0.1667    2.1335 H         1 <0>         0.1347
     51 H10         2.1589   -3.7607    1.5228 H         1 <0>         0.0838
     52 H11         1.6743   -5.4121    1.9772 H         1 <0>         0.1038
     53 H12         3.6593   -6.3186    0.7996 H         1 <0>         0.0830
     54 H13         4.1438   -4.6672    0.3452 H         1 <0>         0.0805
     55 H14         4.3189   -4.0588    2.7427 H         1 <0>         0.0676
     56 H15         3.8343   -5.7102    3.1971 H         1 <0>         0.0702
     57 H16         5.8193   -6.6167    2.0194 H         1 <0>         0.0653
     58 H17         6.3038   -4.9653    1.5650 H         1 <0>         0.0642
     59 H18         6.4788   -4.3570    3.9625 H         1 <0>         0.0611
     60 H19         5.9943   -6.0083    4.4169 H         1 <0>         0.0622
     61 H20         7.9792   -6.9148    3.2393 H         1 <0>         0.0612
     62 H21         8.4638   -5.2635    2.7849 H         1 <0>         0.0605
     63 H22         8.6388   -4.6551    5.1823 H         1 <0>         0.0593
     64 H23         8.1543   -6.3064    5.6368 H         1 <0>         0.0601
     65 H24        10.1392   -7.2129    4.4591 H         1 <0>         0.0600
     66 H25        10.6238   -5.5616    4.0047 H         1 <0>         0.0591
     67 H26        10.7988   -4.9532    6.4022 H         1 <0>         0.0576
     68 H27        10.3142   -6.6046    6.8566 H         1 <0>         0.0638
     69 H28        12.2992   -7.5111    5.6790 H         1 <0>         0.0690
     70 H29        12.7838   -5.8597    5.2245 H         1 <0>         0.0644
     71 H30        12.5280   -6.6550    9.3788 H         1 <0>         0.0573
     72 H31        11.2258   -7.0694    8.2670 H         1 <0>         0.0692
     73 H32        13.6438   -8.2314   11.5358 H         1 <0>         0.0658
     74 H33        14.0761   -9.8993   11.0712 H         1 <0>         0.0727
     75 H34        14.8743   -7.2900    9.7780 H         1 <0>         0.0679
     76 H35        15.7754   -8.8347    9.8644 H         1 <0>         0.0664
     77 H36        14.4456   -9.8429    8.1645 H         1 <0>         0.0750
     78 H37        15.9559   -8.0182    7.4136 H         1 <0>         0.0602
     79 H38        14.9416   -6.0722    8.1278 H         1 <0>         0.0734
     80 H39        14.6908   -3.9012    6.9531 H         1 <0>         0.1232
     81 H40        15.6051   -2.6050    5.0771 H         1 <0>         0.1263
     82 H41        16.4417   -6.2422    3.0033 H         1 <0>         0.1251
     83 H42        15.2855   -8.2526    3.8234 H         1 <0>         0.0751
     84 H43        16.6221   -8.3026    4.9892 H         1 <0>         0.0759
     85 H44        14.9523   -9.6943    5.9116 H         1 <0>         0.0640
     86 H45        13.6494   -8.5768    5.5085 H         1 <0>         0.0750
     87 H46        17.5296   -3.4534    2.9379 H         1 <0>         0.3897
     88 H47        11.8003  -10.7609   10.8055 H         1 <0>         0.3736
     89 H48        12.1120   -9.1130    6.4677 H         1 <0>         0.0561
     90 H49        12.2499  -10.4946    7.5815 H         1 <0>         0.0619
     91 H50        10.8660   -9.3825    7.7099 H         1 <0>         0.0520
@<TRIPOS>BOND
     1    1    2 1
     2    1   44 1
     3    1   45 1
     4    1   46 1
     5    2    7 ar
     6    2    3 ar
     7    3    4 ar
     8    3   47 1
     9    4    5 ar
    10    4   48 1
    11    5    6 ar
    12    5    8 1
    13    6    7 ar
    14    6   49 1
    15    7   50 1
    16    8    9 2
    17    8   10 2
    18    8   11 1
    19   11   12 1
    20   12   13 1
    21   12   51 1
    22   12   52 1
    23   13   14 1
    24   13   53 1
    25   13   54 1
    26   14   15 1
    27   14   55 1
    28   14   56 1
    29   15   16 1
    30   15   57 1
    31   15   58 1
    32   16   17 1
    33   16   59 1
    34   16   60 1
    35   17   18 1
    36   17   61 1
    37   17   62 1
    38   18   19 1
    39   18   63 1
    40   18   64 1
    41   19   20 1
    42   19   65 1
    43   19   66 1
    44   20   21 1
    45   20   67 1
    46   20   68 1
    47   21   22 1
    48   21   69 1
    49   21   70 1
    50   22   23 1
    51   22   32 1
    52   22   24 1
    53   24   25 1
    54   24   71 1
    55   24   72 1
    56   25   30 1
    57   25   26 1
    58   25   43 1
    59   26   27 1
    60   26   28 1
    61   26   42 1
    62   28   29 1
    63   28   73 1
    64   28   74 1
    65   29   30 1
    66   29   75 1
    67   29   76 1
    68   30   31 1
    69   30   77 1
    70   31   40 1
    71   31   32 1
    72   31   78 1
    73   32   33 1
    74   32   79 1
    75   33   38 ar
    76   33   34 ar
    77   34   35 ar
    78   34   80 1
    79   35   36 ar
    80   35   81 1
    81   36   37 ar
    82   36   41 1
    83   37   38 ar
    84   37   82 1
    85   38   39 1
    86   39   40 1
    87   39   83 1
    88   39   84 1
    89   40   85 1
    90   40   86 1
    91   41   87 1
    92   42   88 1
    93   43   89 1
    94   43   90 1
    95   43   91 1
@<TRIPOS>MOLECULE
CHEMBL71668__2
   91    95     0     0     0
SMALL
USER_CHARGES

@<TRIPOS>ATOM
      1 C1         -0.0184    1.5028    0.0103 C.3       1 <0>        -0.1270
      2 C2          0.0021   -0.0041    0.0020 C.ar      1 <0>        -0.0247
      3 C3          0.0057   -0.6887   -1.1989 C.ar      1 <0>        -0.1425
      4 C4          0.0245   -2.0709   -1.2065 C.ar      1 <0>        -0.0096
      5 C5          0.0400   -2.7685   -0.0132 C.ar      1 <0>        -0.7102
      6 C6          0.0373   -2.0839    1.1877 C.ar      1 <0>        -0.0209
      7 C7          0.0229   -0.7016    1.1953 C.ar      1 <0>        -0.1426
      8 S1          0.0628   -4.5303   -0.0229 S.o2      1 <0>         2.6987
      9 O1         -0.4759   -4.9503    1.2232 O.2       1 <0>        -0.9673
     10 O2         -0.4897   -4.9367   -1.2674 O.2       1 <0>        -0.9341
     11 O3          1.5224   -4.9615   -0.0333 O.3       1 <0>        -0.7279
     12 C8          2.1825   -4.8089    1.2248 C.3       1 <0>         0.0602
     13 C9          3.6357   -5.2704    1.0976 C.3       1 <0>        -0.1186
     14 C10         4.3425   -5.1070    2.4447 C.3       1 <0>        -0.1220
     15 C11         5.7957   -5.5685    2.3174 C.3       1 <0>        -0.1194
     16 C12         6.5024   -5.4052    3.6645 C.3       1 <0>        -0.1208
     17 C13         7.9556   -5.8666    3.5373 C.3       1 <0>        -0.1205
     18 C14         8.6624   -5.7033    4.8844 C.3       1 <0>        -0.1198
     19 C15        10.1156   -6.1647    4.7571 C.3       1 <0>        -0.1192
     20 C16        10.8224   -6.0014    6.1042 C.3       1 <0>        -0.1187
     21 C17        12.2756   -6.4628    5.9769 C.3       1 <0>        -0.1233
     22 C18        12.9824   -6.2995    7.3240 C.3       1 <0>        -0.0768
     23 H1         12.8833   -5.2696    7.6668 H         1 <0>         0.0739
     24 C19        12.3570   -7.2433    8.3489 C.3       1 <0>        -0.0995
     25 C20        13.0288   -7.1094    9.6952 C.3       1 <0>        -0.0451
     26 C21        12.8556   -5.7053   10.3041 C.3       1 <0>         0.0936
     27 H2         13.0101   -4.9367    9.5469 H         1 <0>         0.0775
     28 C22        13.9641   -5.6403   11.3801 C.3       1 <0>        -0.1582
     29 C23        15.0363   -6.6664   10.9685 C.3       1 <0>        -0.1207
     30 C24        14.5560   -7.2840    9.6276 C.3       1 <0>        -0.0737
     31 C25        15.1642   -6.4466    8.5100 C.3       1 <0>        -0.0741
     32 C26        14.4688   -6.6513    7.1721 C.3       1 <0>        -0.0350
     33 C27        15.0668   -5.7281    6.1364 C.ar      1 <0>        -0.0755
     34 C28        14.8780   -6.0490    4.7989 C.ar      1 <0>        -0.0966
     35 C29        15.3910   -5.2419    3.8056 C.ar      1 <0>        -0.1500
     36 C30        16.1001   -4.0993    4.1478 C.ar      1 <0>         0.1034
     37 C31        16.2902   -3.7827    5.4816 C.ar      1 <0>        -0.1497
     38 C32        15.7770   -4.6002    6.4807 C.ar      1 <0>        -0.0563
     39 C33        16.0429   -4.2046    7.9096 C.3       1 <0>        -0.0832
     40 C34        15.1181   -4.9587    8.8627 C.3       1 <0>        -0.1380
     41 O4         16.6065   -3.2945    3.1768 O.3       1 <0>        -0.5006
     42 O5         11.5635   -5.5707   10.8994 O.3       1 <0>        -0.5608
     43 C35        12.4404   -8.1371   10.6640 C.3       1 <0>        -0.1340
     44 H3          1.0042    1.8801    0.0026 H         1 <0>         0.0809
     45 H4         -0.5455    1.8639   -0.8728 H         1 <0>         0.0746
     46 H5         -0.5286    1.8543    0.9071 H         1 <0>         0.0743
     47 H6         -0.0064   -0.1436   -2.1312 H         1 <0>         0.1352
     48 H7          0.0266   -2.6057   -2.1448 H         1 <0>         0.1433
     49 H8          0.0491   -2.6289    2.1200 H         1 <0>         0.1414
     50 H9          0.0245   -0.1667    2.1335 H         1 <0>         0.1347
     51 H10         2.1589   -3.7607    1.5228 H         1 <0>         0.0838
     52 H11         1.6743   -5.4121    1.9772 H         1 <0>         0.1039
     53 H12         3.6593   -6.3186    0.7996 H         1 <0>         0.0830
     54 H13         4.1438   -4.6672    0.3452 H         1 <0>         0.0804
     55 H14         4.3189   -4.0588    2.7427 H         1 <0>         0.0676
     56 H15         3.8343   -5.7102    3.1971 H         1 <0>         0.0704
     57 H16         5.8193   -6.6167    2.0194 H         1 <0>         0.0653
     58 H17         6.3038   -4.9653    1.5650 H         1 <0>         0.0640
     59 H18         6.4788   -4.3570    3.9625 H         1 <0>         0.0612
     60 H19         5.9943   -6.0083    4.4169 H         1 <0>         0.0626
     61 H20         7.9792   -6.9148    3.2393 H         1 <0>         0.0611
     62 H21         8.4638   -5.2635    2.7849 H         1 <0>         0.0601
     63 H22         8.6388   -4.6551    5.1823 H         1 <0>         0.0594
     64 H23         8.1543   -6.3064    5.6368 H         1 <0>         0.0608
     65 H24        10.1392   -7.2129    4.4591 H         1 <0>         0.0600
     66 H25        10.6238   -5.5616    4.0047 H         1 <0>         0.0587
     67 H26        10.7988   -4.9532    6.4022 H         1 <0>         0.0577
     68 H27        10.3142   -6.6046    6.8566 H         1 <0>         0.0637
     69 H28        12.2992   -7.5111    5.6790 H         1 <0>         0.0609
     70 H29        12.7838   -5.8597    5.2245 H         1 <0>         0.0726
     71 H30        11.2980   -7.0069    8.4529 H         1 <0>         0.0719
     72 H31        12.4601   -8.2703    7.9986 H         1 <0>         0.0634
     73 H32        14.3966   -4.6403   11.4110 H         1 <0>         0.0657
     74 H33        13.5534   -5.9004   12.3557 H         1 <0>         0.0718
     75 H34        15.9963   -6.1694   10.8291 H         1 <0>         0.0706
     76 H35        15.1229   -7.4429   11.7286 H         1 <0>         0.0643
     77 H36        14.8336   -8.3352    9.5489 H         1 <0>         0.0853
     78 H37        16.2079   -6.7381    8.3920 H         1 <0>         0.0699
     79 H38        14.5712   -7.6913    6.8624 H         1 <0>         0.0833
     80 H39        14.3251   -6.9382    4.5343 H         1 <0>         0.1270
     81 H40        15.2419   -5.4978    2.7670 H         1 <0>         0.1268
     82 H41        16.8416   -2.8930    5.7478 H         1 <0>         0.1249
     83 H42        17.0781   -4.4372    8.1593 H         1 <0>         0.0762
     84 H43        15.8805   -3.1325    8.0209 H         1 <0>         0.0743
     85 H44        14.1001   -4.5857    8.7508 H         1 <0>         0.0789
     86 H45        15.4525   -4.8139    9.8900 H         1 <0>         0.0835
     87 H46        16.0031   -2.5948    2.8916 H         1 <0>         0.3896
     88 H47        11.4023   -4.7045   11.2979 H         1 <0>         0.3745
     89 H48        12.6174   -9.1417   10.2796 H         1 <0>         0.0489
     90 H49        12.9166   -8.0319   11.6387 H         1 <0>         0.0544
     91 H50        11.3679   -7.9700   10.7636 H         1 <0>         0.0632
@<TRIPOS>BOND
     1    1    2 1
     2    1   44 1
     3    1   45 1
     4    1   46 1
     5    2    7 ar
     6    2    3 ar
     7    3    4 ar
     8    3   47 1
     9    4    5 ar
    10    4   48 1
    11    5    6 ar
    12    5    8 1
    13    6    7 ar
    14    6   49 1
    15    7   50 1
    16    8    9 2
    17    8   10 2
    18    8   11 1
    19   11   12 1
    20   12   13 1
    21   12   51 1
    22   12   52 1
    23   13   14 1
    24   13   53 1
    25   13   54 1
    26   14   15 1
    27   14   55 1
    28   14   56 1
    29   15   16 1
    30   15   57 1
    31   15   58 1
    32   16   17 1
    33   16   59 1
    34   16   60 1
    35   17   18 1
    36   17   61 1
    37   17   62 1
    38   18   19 1
    39   18   63 1
    40   18   64 1
    41   19   20 1
    42   19   65 1
    43   19   66 1
    44   20   21 1
    45   20   67 1
    46   20   68 1
    47   21   22 1
    48   21   69 1
    49   21   70 1
    50   22   23 1
    51   22   32 1
    52   22   24 1
    53   24   25 1
    54   24   71 1
    55   24   72 1
    56   25   30 1
    57   25   26 1
    58   25   43 1
    59   26   27 1
    60   26   28 1
    61   26   42 1
    62   28   29 1
    63   28   73 1
    64   28   74 1
    65   29   30 1
    66   29   75 1
    67   29   76 1
    68   30   31 1
    69   30   77 1
    70   31   40 1
    71   31   32 1
    72   31   78 1
    73   32   33 1
    74   32   79 1
    75   33   38 ar
    76   33   34 ar
    77   34   35 ar
    78   34   80 1
    79   35   36 ar
    80   35   81 1
    81   36   37 ar
    82   36   41 1
    83   37   38 ar
    84   37   82 1
    85   38   39 1
    86   39   40 1
    87   39   83 1
    88   39   84 1
    89   40   85 1
    90   40   86 1
    91   41   87 1
    92   42   88 1
    93   43   89 1
    94   43   90 1
    95   43   91 1
@<TRIPOS>MOLECULE
CHEMBL71668__3
   91    95     0     0     0
SMALL
USER_CHARGES

@<TRIPOS>ATOM
      1 C1         -1.0474   -0.2301   -0.2392 C.3       1 <0>        -0.1270
      2 C2         -0.8765   -1.7183   -0.0743 C.ar      1 <0>        -0.0248
      3 C3         -0.8586   -2.5393   -1.1863 C.ar      1 <0>        -0.1426
      4 C4         -0.7019   -3.9044   -1.0351 C.ar      1 <0>        -0.0097
      5 C5         -0.5626   -4.4484    0.2281 C.ar      1 <0>        -0.7102
      6 C6         -0.5796   -3.6273    1.3400 C.ar      1 <0>        -0.0208
      7 C7         -0.7320   -2.2617    1.1885 C.ar      1 <0>        -0.1425
      8 S1         -0.3640   -6.1885    0.4210 S.o2      1 <0>         2.6987
      9 O1         -0.8010   -6.5039    1.7358 O.2       1 <0>        -0.9675
     10 O2         -0.9287   -6.7923   -0.7348 O.2       1 <0>        -0.9344
     11 O3          1.1295   -6.4785    0.3776 O.3       1 <0>        -0.7279
     12 C8          1.8272   -6.1139    1.5702 C.3       1 <0>         0.0602
     13 C9          3.3120   -6.4485    1.4149 C.3       1 <0>        -0.1184
     14 C10         4.0591   -6.0581    2.6918 C.3       1 <0>        -0.1221
     15 C11         5.5440   -6.3928    2.5364 C.3       1 <0>        -0.1189
     16 C12         6.2910   -6.0024    3.8133 C.3       1 <0>        -0.1202
     17 C13         7.7759   -6.3370    3.6580 C.3       1 <0>        -0.1195
     18 C14         8.5229   -5.9466    4.9349 C.3       1 <0>        -0.1163
     19 C15        10.0078   -6.2812    4.7795 C.3       1 <0>        -0.1184
     20 C16        10.7548   -5.8908    6.0564 C.3       1 <0>        -0.1330
     21 C17        12.2397   -6.2254    5.9011 C.3       1 <0>        -0.1270
     22 C18        12.9615   -5.9689    7.2255 C.3       1 <0>        -0.0760
     23 H1         12.4211   -6.4530    8.0389 H         1 <0>         0.0741
     24 C19        14.3848   -6.5194    7.1523 C.3       1 <0>        -0.1052
     25 C20        15.1734   -5.8809    6.0078 C.3       1 <0>        -0.0407
     26 C21        16.6709   -6.1932    6.2705 C.3       1 <0>         0.1025
     27 H2         16.7668   -7.1247    6.8285 H         1 <0>         0.0557
     28 C22        17.2180   -5.0190    7.1034 C.3       1 <0>        -0.1583
     29 C23        16.0515   -4.0191    7.2758 C.3       1 <0>        -0.1168
     30 C24        15.1236   -4.3424    6.0901 C.3       1 <0>        -0.0699
     31 C25        13.7257   -3.8140    6.2825 C.3       1 <0>        -0.0769
     32 C26        13.0454   -4.4632    7.4849 C.3       1 <0>        -0.0375
     33 C27        11.6777   -3.8767    7.6938 C.ar      1 <0>        -0.0654
     34 C28        10.7599   -4.6032    8.4405 C.ar      1 <0>        -0.0947
     35 C29         9.4936   -4.1092    8.6706 C.ar      1 <0>        -0.1481
     36 C30         9.1338   -2.8737    8.1514 C.ar      1 <0>         0.1032
     37 C31        10.0478   -2.1512    7.4044 C.ar      1 <0>        -0.1482
     38 C32        11.3215   -2.6518    7.1697 C.ar      1 <0>        -0.0611
     39 C33        12.2549   -1.8198    6.3302 C.3       1 <0>        -0.0811
     40 C34        13.7026   -2.2975    6.4723 C.3       1 <0>        -0.1123
     41 O4          7.8893   -2.3756    8.3749 O.3       1 <0>        -0.5006
     42 O5         17.3769   -6.2887    5.0318 O.3       1 <0>        -0.5610
     43 C35        14.6968   -6.3884    4.6454 C.3       1 <0>        -0.1403
     44 H3         -0.0691    0.2380   -0.3486 H         1 <0>         0.0810
     45 H4         -1.6475   -0.0294   -1.1268 H         1 <0>         0.0745
     46 H5         -1.5492    0.1774    0.6384 H         1 <0>         0.0743
     47 H6         -0.9675   -2.1143   -2.1732 H         1 <0>         0.1351
     48 H7         -0.6886   -4.5460   -1.9038 H         1 <0>         0.1432
     49 H8         -0.4711   -4.0523    2.3269 H         1 <0>         0.1415
     50 H9         -0.7416   -1.6198    2.0569 H         1 <0>         0.1348
     51 H10         1.7122   -5.0443    1.7458 H         1 <0>         0.0839
     52 H11         1.4165   -6.6670    2.4149 H         1 <0>         0.1039
     53 H12         3.4270   -7.5181    1.2393 H         1 <0>         0.0828
     54 H13         3.7227   -5.8954    0.5702 H         1 <0>         0.0804
     55 H14         3.9441   -4.9885    2.8674 H         1 <0>         0.0678
     56 H15         3.6484   -6.6112    3.5365 H         1 <0>         0.0701
     57 H16         5.6589   -7.4624    2.3608 H         1 <0>         0.0648
     58 H17         5.9546   -5.8397    1.6917 H         1 <0>         0.0638
     59 H18         6.1760   -4.9328    3.9889 H         1 <0>         0.0614
     60 H19         5.8803   -6.5555    4.6580 H         1 <0>         0.0617
     61 H20         7.8908   -7.4066    3.4824 H         1 <0>         0.0599
     62 H21         8.1865   -5.7839    2.8133 H         1 <0>         0.0594
     63 H22         8.4079   -4.8770    5.1105 H         1 <0>         0.0592
     64 H23         8.1123   -6.4997    5.7796 H         1 <0>         0.0581
     65 H24        10.1227   -7.3508    4.6039 H         1 <0>         0.0562
     66 H25        10.4184   -5.7281    3.9348 H         1 <0>         0.0563
     67 H26        10.6398   -4.8212    6.2320 H         1 <0>         0.0796
     68 H27        10.3442   -6.4439    6.9011 H         1 <0>         0.0573
     69 H28        12.3488   -7.2742    5.6250 H         1 <0>         0.0599
     70 H29        12.6741   -5.5978    5.1230 H         1 <0>         0.0830
     71 H30        14.8947   -6.3154    8.0938 H         1 <0>         0.0632
     72 H31        14.3423   -7.5976    6.9978 H         1 <0>         0.0643
     73 H32        17.5512   -5.3758    8.0780 H         1 <0>         0.0661
     74 H33        18.0447   -4.5414    6.5776 H         1 <0>         0.0724
     75 H34        15.5379   -4.1877    8.2223 H         1 <0>         0.0692
     76 H35        16.4130   -2.9927    7.2115 H         1 <0>         0.0667
     77 H36        15.5381   -3.9156    5.1768 H         1 <0>         0.0755
     78 H37        13.1408   -4.0579    5.3957 H         1 <0>         0.0782
     79 H38        13.6448   -4.2843    8.3776 H         1 <0>         0.0817
     80 H39        11.0408   -5.5643    8.8452 H         1 <0>         0.1254
     81 H40         8.7852   -4.6809    9.2517 H         1 <0>         0.1251
     82 H41         9.7679   -1.1895    7.0005 H         1 <0>         0.1235
     83 H42        11.9565   -1.8934    5.2844 H         1 <0>         0.0761
     84 H43        12.1890   -0.7790    6.6473 H         1 <0>         0.0744
     85 H44        14.0762   -2.0455    7.4648 H         1 <0>         0.0659
     86 H45        14.3243   -1.8225    5.7134 H         1 <0>         0.0693
     87 H46         7.8188   -1.8378    9.1755 H         1 <0>         0.3890
     88 H47        18.3192   -6.4827    5.1301 H         1 <0>         0.3747
     89 H48        13.8953   -5.7470    4.2789 H         1 <0>         0.0628
     90 H49        15.5277   -6.3706    3.9401 H         1 <0>         0.0700
     91 H50        14.3279   -7.4090    4.7466 H         1 <0>         0.0536
@<TRIPOS>BOND
     1    1    2 1
     2    1   44 1
     3    1   45 1
     4    1   46 1
     5    2    7 ar
     6    2    3 ar
     7    3    4 ar
     8    3   47 1
     9    4    5 ar
    10    4   48 1
    11    5    6 ar
    12    5    8 1
    13    6    7 ar
    14    6   49 1
    15    7   50 1
    16    8    9 2
    17    8   10 2
    18    8   11 1
    19   11   12 1
    20   12   13 1
    21   12   51 1
    22   12   52 1
    23   13   14 1
    24   13   53 1
    25   13   54 1
    26   14   15 1
    27   14   55 1
    28   14   56 1
    29   15   16 1
    30   15   57 1
    31   15   58 1
    32   16   17 1
    33   16   59 1
    34   16   60 1
    35   17   18 1
    36   17   61 1
    37   17   62 1
    38   18   19 1
    39   18   63 1
    40   18   64 1
    41   19   20 1
    42   19   65 1
    43   19   66 1
    44   20   21 1
    45   20   67 1
    46   20   68 1
    47   21   22 1
    48   21   69 1
    49   21   70 1
    50   22   23 1
    51   22   32 1
    52   22   24 1
    53   24   25 1
    54   24   71 1
    55   24   72 1
    56   25   30 1
    57   25   26 1
    58   25   43 1
    59   26   27 1
    60   26   28 1
    61   26   42 1
    62   28   29 1
    63   28   73 1
    64   28   74 1
    65   29   30 1
    66   29   75 1
    67   29   76 1
    68   30   31 1
    69   30   77 1
    70   31   40 1
    71   31   32 1
    72   31   78 1
    73   32   33 1
    74   32   79 1
    75   33   38 ar
    76   33   34 ar
    77   34   35 ar
    78   34   80 1
    79   35   36 ar
    80   35   81 1
    81   36   37 ar
    82   36   41 1
    83   37   38 ar
    84   37   82 1
    85   38   39 1
    86   39   40 1
    87   39   83 1
    88   39   84 1
    89   40   85 1
    90   40   86 1
    91   41   87 1
    92   42   88 1
    93   43   89 1
    94   43   90 1
    95   43   91 1
@<TRIPOS>MOLECULE
CHEMBL71668__4
   91    95     0     0     0
SMALL
USER_CHARGES

@<TRIPOS>ATOM
      1 C1          0.0627    1.5552   -0.0517 C.3       1 <0>        -0.1271
      2 C2          0.0809    0.0484   -0.0650 C.ar      1 <0>        -0.0247
      3 C3          0.0920   -0.6321   -1.2682 C.ar      1 <0>        -0.1425
      4 C4          0.1087   -2.0143   -1.2804 C.ar      1 <0>        -0.0096
      5 C5          0.1147   -2.7160   -0.0893 C.ar      1 <0>        -0.7102
      6 C6          0.1046   -2.0355    1.1139 C.ar      1 <0>        -0.0209
      7 C7          0.0922   -0.6532    1.1260 C.ar      1 <0>        -0.1427
      8 S1          0.1349   -4.4778   -0.1049 S.o2      1 <0>         2.6986
      9 O1         -0.4132   -4.9012    1.1359 O.2       1 <0>        -0.9674
     10 O2         -0.4094   -4.8792   -1.3547 O.2       1 <0>        -0.9341
     11 O3          1.5939   -4.9112   -0.1065 O.3       1 <0>        -0.7278
     12 C8          2.2453   -4.7640    1.1568 C.3       1 <0>         0.0602
     13 C9          3.6987   -5.2272    1.0383 C.3       1 <0>        -0.1186
     14 C10         4.3961   -5.0695    2.3909 C.3       1 <0>        -0.1220
     15 C11         5.8495   -5.5328    2.2723 C.3       1 <0>        -0.1195
     16 C12         6.5470   -5.3751    3.6249 C.3       1 <0>        -0.1207
     17 C13         8.0003   -5.8384    3.5064 C.3       1 <0>        -0.1207
     18 C14         8.6978   -5.6807    4.8590 C.3       1 <0>        -0.1199
     19 C15        10.1512   -6.1440    4.7404 C.3       1 <0>        -0.1197
     20 C16        10.8487   -5.9863    6.0930 C.3       1 <0>        -0.1190
     21 C17        12.3020   -6.4496    5.9745 C.3       1 <0>        -0.1195
     22 C18        12.9971   -6.2925    7.3224 C.3       1 <0>        -0.0666
     23 H1         12.8798   -5.2446    7.6461 H         1 <0>         0.0651
     24 C19        12.2714   -7.1913    8.3482 C.3       1 <0>        -0.0952
     25 C20        13.1893   -7.6027    9.4656 C.3       1 <0>        -0.0487
     26 C21        12.5187   -7.7445   10.8512 C.3       1 <0>         0.1013
     27 H2         11.8494   -6.9115   11.0214 H         1 <0>         0.0592
     28 C22        13.7211   -7.7012   11.8299 C.3       1 <0>        -0.1583
     29 C23        14.9114   -7.0929   11.0342 C.3       1 <0>        -0.1110
     30 C24        14.2232   -6.5079    9.7946 C.3       1 <0>        -0.0734
     31 C25        15.0483   -6.0974    8.6307 C.3       1 <0>        -0.0707
     32 C26        14.4779   -6.6198    7.3007 C.3       1 <0>        -0.0382
     33 C27        15.3095   -6.0825    6.1766 C.ar      1 <0>        -0.0640
     34 C28        14.9680   -6.3323    4.8562 C.ar      1 <0>        -0.1012
     35 C29        15.6431   -5.7461    3.8057 C.ar      1 <0>        -0.1538
     36 C30        16.7470   -4.9483    4.0603 C.ar      1 <0>         0.1049
     37 C31        17.1823   -4.8076    5.3651 C.ar      1 <0>        -0.1535
     38 C32        16.5035   -5.4176    6.4109 C.ar      1 <0>        -0.0626
     39 C33        17.1913   -5.3942    7.7544 C.3       1 <0>        -0.0844
     40 C34        16.5344   -6.4203    8.6908 C.3       1 <0>        -0.1106
     41 O4         17.3888   -4.3140    3.0463 O.3       1 <0>        -0.5002
     42 O5         11.8426   -8.9953   10.9348 O.3       1 <0>        -0.5556
     43 C35        13.8415   -8.9562    9.1729 C.3       1 <0>        -0.1371
     44 H3          1.0859    1.9310   -0.0509 H         1 <0>         0.0809
     45 H4         -0.4577    1.9201   -0.9372 H         1 <0>         0.0746
     46 H5         -0.4533    1.9045    0.8427 H         1 <0>         0.0743
     47 H6          0.0873   -0.0839   -2.1987 H         1 <0>         0.1352
     48 H7          0.1166   -2.5460   -2.2204 H         1 <0>         0.1433
     49 H8          0.1089   -2.5837    2.0444 H         1 <0>         0.1414
     50 H9          0.0880   -0.1215    2.0661 H         1 <0>         0.1347
     51 H10         2.2212   -3.7167    1.4582 H         1 <0>         0.0838
     52 H11         1.7309   -5.3689    1.9036 H         1 <0>         0.1039
     53 H12         3.7228   -6.2744    0.7369 H         1 <0>         0.0830
     54 H13         4.2130   -4.6223    0.2916 H         1 <0>         0.0805
     55 H14         4.3720   -4.0223    2.6923 H         1 <0>         0.0676
     56 H15         3.8818   -5.6745    3.1376 H         1 <0>         0.0703
     57 H16         5.8736   -6.5800    1.9710 H         1 <0>         0.0653
     58 H17         6.3639   -4.9279    1.5256 H         1 <0>         0.0641
     59 H18         6.5229   -4.3279    3.9263 H         1 <0>         0.0612
     60 H19         6.0326   -5.9801    4.3717 H         1 <0>         0.0624
     61 H20         8.0245   -6.8856    3.2050 H         1 <0>         0.0613
     62 H21         8.5147   -5.2335    2.7597 H         1 <0>         0.0605
     63 H22         8.6737   -4.6335    5.1604 H         1 <0>         0.0596
     64 H23         8.1834   -6.2857    5.6057 H         1 <0>         0.0605
     65 H24        10.1753   -7.1912    4.4391 H         1 <0>         0.0605
     66 H25        10.6656   -5.5391    3.9937 H         1 <0>         0.0596
     67 H26        10.8246   -4.9391    6.3944 H         1 <0>         0.0589
     68 H27        10.3343   -6.5913    6.8398 H         1 <0>         0.0633
     69 H28        12.3262   -7.4968    5.6731 H         1 <0>         0.0617
     70 H29        12.8164   -5.8447    5.2278 H         1 <0>         0.0708
     71 H30        11.4142   -6.6400    8.7572 H         1 <0>         0.0614
     72 H31        11.8841   -8.0799    7.8343 H         1 <0>         0.0682
     73 H32        13.4849   -7.0683   12.6842 H         1 <0>         0.0642
     74 H33        13.9695   -8.7074   12.1636 H         1 <0>         0.0742
     75 H34        15.3856   -6.2981   11.6147 H         1 <0>         0.0637
     76 H35        15.6418   -7.8510   10.7731 H         1 <0>         0.0742
     77 H36        13.6601   -5.6087   10.1432 H         1 <0>         0.0655
     78 H37        14.9816   -4.9847    8.5624 H         1 <0>         0.0630
     79 H38        14.6045   -7.6988    7.2601 H         1 <0>         0.0875
     80 H39        14.2215   -7.0743    4.6087 H         1 <0>         0.1263
     81 H40        15.3139   -5.9125    2.7901 H         1 <0>         0.1272
     82 H41        18.0591   -4.2107    5.5736 H         1 <0>         0.1251
     83 H42        18.2393   -5.6466    7.6270 H         1 <0>         0.0775
     84 H43        17.0939   -4.4042    8.1906 H         1 <0>         0.0764
     85 H44        16.9168   -6.2930    9.6985 H         1 <0>         0.0749
     86 H45        16.7244   -7.4235    8.3238 H         1 <0>         0.0691
     87 H46        17.0455   -3.4305    2.8551 H         1 <0>         0.3903
     88 H47        11.3997   -9.1473   11.7808 H         1 <0>         0.3745
     89 H48        14.3409   -8.9172    8.2048 H         1 <0>         0.0533
     90 H49        14.5719   -9.1830    9.9496 H         1 <0>         0.0567
     91 H50        13.0763   -9.7322    9.1560 H         1 <0>         0.0660
@<TRIPOS>BOND
     1    1    2 1
     2    1   44 1
     3    1   45 1
     4    1   46 1
     5    2    7 ar
     6    2    3 ar
     7    3    4 ar
     8    3   47 1
     9    4    5 ar
    10    4   48 1
    11    5    6 ar
    12    5    8 1
    13    6    7 ar
    14    6   49 1
    15    7   50 1
    16    8    9 2
    17    8   10 2
    18    8   11 1
    19   11   12 1
    20   12   13 1
    21   12   51 1
    22   12   52 1
    23   13   14 1
    24   13   53 1
    25   13   54 1
    26   14   15 1
    27   14   55 1
    28   14   56 1
    29   15   16 1
    30   15   57 1
    31   15   58 1
    32   16   17 1
    33   16   59 1
    34   16   60 1
    35   17   18 1
    36   17   61 1
    37   17   62 1
    38   18   19 1
    39   18   63 1
    40   18   64 1
    41   19   20 1
    42   19   65 1
    43   19   66 1
    44   20   21 1
    45   20   67 1
    46   20   68 1
    47   21   22 1
    48   21   69 1
    49   21   70 1
    50   22   23 1
    51   22   32 1
    52   22   24 1
    53   24   25 1
    54   24   71 1
    55   24   72 1
    56   25   30 1
    57   25   26 1
    58   25   43 1
    59   26   27 1
    60   26   28 1
    61   26   42 1
    62   28   29 1
    63   28   73 1
    64   28   74 1
    65   29   30 1
    66   29   75 1
    67   29   76 1
    68   30   31 1
    69   30   77 1
    70   31   40 1
    71   31   32 1
    72   31   78 1
    73   32   33 1
    74   32   79 1
    75   33   38 ar
    76   33   34 ar
    77   34   35 ar
    78   34   80 1
    79   35   36 ar
    80   35   81 1
    81   36   37 ar
    82   36   41 1
    83   37   38 ar
    84   37   82 1
    85   38   39 1
    86   39   40 1
    87   39   83 1
    88   39   84 1
    89   40   85 1
    90   40   86 1
    91   41   87 1
    92   42   88 1
    93   43   89 1
    94   43   90 1
    95   43   91 1
@<TRIPOS>MOLECULE
CHEMBL71668__5
   91    95     0     0     0
SMALL
USER_CHARGES

@<TRIPOS>ATOM
      1 C1          2.3528    2.3085   -1.9854 C.3       1 <0>        -0.1270
      2 C2          2.1637    0.8170   -1.8819 C.ar      1 <0>        -0.0248
      3 C3          2.1875    0.0365   -3.0226 C.ar      1 <0>        -0.1425
      4 C4          2.0141   -1.3317   -2.9277 C.ar      1 <0>        -0.0096
      5 C5          1.8174   -1.9193   -1.6921 C.ar      1 <0>        -0.7101
      6 C6          1.7945   -1.1390   -0.5513 C.ar      1 <0>        -0.0209
      7 C7          1.9722    0.2287   -0.6458 C.ar      1 <0>        -0.1426
      8 S1          1.5952   -3.6631   -1.5712 S.o2      1 <0>         2.6987
      9 O1          0.8858   -3.8993   -0.3628 O.2       1 <0>        -0.9674
     10 O2          1.1138   -4.0997   -2.8349 O.2       1 <0>        -0.9343
     11 O3          2.9746   -4.2813   -1.3939 O.3       1 <0>        -0.7279
     12 C8          3.5253   -4.1084   -0.0866 C.3       1 <0>         0.0603
     13 C9          4.9055   -4.7657   -0.0236 C.3       1 <0>        -0.1187
     14 C10         5.4952   -4.5806    1.3760 C.3       1 <0>        -0.1219
     15 C11         6.8753   -5.2379    1.4390 C.3       1 <0>        -0.1195
     16 C12         7.4650   -5.0528    2.8386 C.3       1 <0>        -0.1204
     17 C13         8.8451   -5.7101    2.9016 C.3       1 <0>        -0.1207
     18 C14         9.4348   -5.5250    4.3012 C.3       1 <0>        -0.1192
     19 C15        10.8149   -6.1823    4.3642 C.3       1 <0>        -0.1185
     20 C16        11.4046   -5.9972    5.7638 C.3       1 <0>        -0.1222
     21 C17        12.7847   -6.6545    5.8268 C.3       1 <0>        -0.1187
     22 C18        13.3730   -6.4698    7.2231 C.3       1 <0>        -0.0652
     23 H1         13.4261   -5.3639    7.3767 H         1 <0>         0.0570
     24 C19        12.4255   -6.9919    8.2939 C.3       1 <0>        -0.0993
     25 C20        12.6063   -8.4573    8.5851 C.3       1 <0>        -0.0431
     26 C21        12.0171   -8.9228    9.9363 C.3       1 <0>         0.1006
     27 H2         12.1792   -8.1625   10.6897 H         1 <0>         0.0578
     28 C22        12.8106  -10.2128   10.2628 C.3       1 <0>        -0.1566
     29 C23        14.0414  -10.2264    9.3119 C.3       1 <0>        -0.1112
     30 C24        14.0938   -8.7787    8.8154 C.3       1 <0>        -0.0778
     31 C25        14.9559   -8.4445    7.6428 C.3       1 <0>        -0.0569
     32 C26        14.7992   -6.9680    7.2971 C.3       1 <0>        -0.0283
     33 C27        15.5589   -6.6270    6.0395 C.ar      1 <0>        -0.0684
     34 C28        15.7461   -5.2792    5.7494 C.ar      1 <0>        -0.1017
     35 C29        16.4300   -4.8907    4.6177 C.ar      1 <0>        -0.1469
     36 C30        16.9399   -5.8539    3.7589 C.ar      1 <0>         0.1020
     37 C31        16.7662   -7.1955    4.0526 C.ar      1 <0>        -0.1466
     38 C32        16.0880   -7.5825    5.2008 C.ar      1 <0>        -0.0573
     39 C33        15.9764   -9.0598    5.4808 C.3       1 <0>        -0.0851
     40 C34        14.7878   -9.3216    6.4147 C.3       1 <0>        -0.1138
     41 O4         17.6094   -5.4819    2.6366 O.3       1 <0>        -0.5005
     42 O5         10.6306   -9.2129    9.7788 O.3       1 <0>        -0.5563
     43 C35        11.9613   -9.3274    7.5083 C.3       1 <0>        -0.1366
     44 H3          3.4139    2.5463   -1.9110 H         1 <0>         0.0810
     45 H4          1.9685    2.6578   -2.9438 H         1 <0>         0.0745
     46 H5          1.8126    2.8002   -1.1764 H         1 <0>         0.0743
     47 H6          2.3412    0.4956   -3.9880 H         1 <0>         0.1352
     48 H7          2.0320   -1.9414   -3.8190 H         1 <0>         0.1433
     49 H8          1.6404   -1.5981    0.4141 H         1 <0>         0.1415
     50 H9          1.9580    0.8379    0.2459 H         1 <0>         0.1347
     51 H10         3.6195   -3.0443    0.1301 H         1 <0>         0.0838
     52 H11         2.8681   -4.5722    0.6488 H         1 <0>         0.1039
     53 H12         4.8114   -5.8298   -0.2404 H         1 <0>         0.0830
     54 H13         5.5628   -4.3019   -0.7591 H         1 <0>         0.0805
     55 H14         5.5893   -3.5165    1.5927 H         1 <0>         0.0676
     56 H15         4.8379   -5.0444    2.1114 H         1 <0>         0.0703
     57 H16         6.7812   -6.3020    1.2222 H         1 <0>         0.0653
     58 H17         7.5326   -4.7741    0.7035 H         1 <0>         0.0641
     59 H18         7.5591   -3.9887    3.0554 H         1 <0>         0.0611
     60 H19         6.8077   -5.5166    3.5741 H         1 <0>         0.0624
     61 H20         8.7510   -6.7742    2.6848 H         1 <0>         0.0611
     62 H21         9.5024   -5.2463    2.1661 H         1 <0>         0.0602
     63 H22         9.5289   -4.4609    4.5180 H         1 <0>         0.0591
     64 H23         8.7775   -5.9888    5.0367 H         1 <0>         0.0606
     65 H24        10.7208   -7.2464    4.1475 H         1 <0>         0.0597
     66 H25        11.4722   -5.7185    3.6288 H         1 <0>         0.0585
     67 H26        11.4987   -4.9331    5.9806 H         1 <0>         0.0572
     68 H27        10.7473   -6.4610    6.4993 H         1 <0>         0.0672
     69 H28        12.6906   -7.7186    5.6101 H         1 <0>         0.0685
     70 H29        13.4420   -6.1907    5.0914 H         1 <0>         0.0652
     71 H30        12.5749   -6.4175    9.2215 H         1 <0>         0.0545
     72 H31        11.3858   -6.8108    7.9770 H         1 <0>         0.0768
     73 H32        13.1429  -10.1915   11.3011 H         1 <0>         0.0639
     74 H33        12.1917  -11.0920   10.0870 H         1 <0>         0.0738
     75 H34        14.9477  -10.4662    9.8739 H         1 <0>         0.0634
     76 H35        13.9052  -10.9285    8.4970 H         1 <0>         0.0736
     77 H36        14.4429   -8.1586    9.6719 H         1 <0>         0.0660
     78 H37        16.0142   -8.5756    7.9774 H         1 <0>         0.0624
     79 H38        15.2939   -6.4009    8.1167 H         1 <0>         0.0691
     80 H39        15.3508   -4.5303    6.4203 H         1 <0>         0.1230
     81 H40        16.5725   -3.8406    4.4023 H         1 <0>         0.1265
     82 H41        17.1572   -7.9470    3.3813 H         1 <0>         0.1259
     83 H42        15.8228   -9.5958    4.5476 H         1 <0>         0.0759
     84 H43        16.8888   -9.4051    5.9613 H         1 <0>         0.0765
     85 H44        14.7900  -10.3762    6.6990 H         1 <0>         0.0691
     86 H45        13.8773   -9.0930    5.8694 H         1 <0>         0.0773
     87 H46        18.5620   -5.3757    2.7639 H         1 <0>         0.3897
     88 H47        10.1966   -9.5113   10.5898 H         1 <0>         0.3735
     89 H48        12.3526   -9.0455    6.5308 H         1 <0>         0.0614
     90 H49        12.1899  -10.3752    7.7028 H         1 <0>         0.0527
     91 H50        10.8811   -9.1824    7.5229 H         1 <0>         0.0637
@<TRIPOS>BOND
     1    1    2 1
     2    1   44 1
     3    1   45 1
     4    1   46 1
     5    2    7 ar
     6    2    3 ar
     7    3    4 ar
     8    3   47 1
     9    4    5 ar
    10    4   48 1
    11    5    6 ar
    12    5    8 1
    13    6    7 ar
    14    6   49 1
    15    7   50 1
    16    8    9 2
    17    8   10 2
    18    8   11 1
    19   11   12 1
    20   12   13 1
    21   12   51 1
    22   12   52 1
    23   13   14 1
    24   13   53 1
    25   13   54 1
    26   14   15 1
    27   14   55 1
    28   14   56 1
    29   15   16 1
    30   15   57 1
    31   15   58 1
    32   16   17 1
    33   16   59 1
    34   16   60 1
    35   17   18 1
    36   17   61 1
    37   17   62 1
    38   18   19 1
    39   18   63 1
    40   18   64 1
    41   19   20 1
    42   19   65 1
    43   19   66 1
    44   20   21 1
    45   20   67 1
    46   20   68 1
    47   21   22 1
    48   21   69 1
    49   21   70 1
    50   22   23 1
    51   22   32 1
    52   22   24 1
    53   24   25 1
    54   24   71 1
    55   24   72 1
    56   25   30 1
    57   25   26 1
    58   25   43 1
    59   26   27 1
    60   26   28 1
    61   26   42 1
    62   28   29 1
    63   28   73 1
    64   28   74 1
    65   29   30 1
    66   29   75 1
    67   29   76 1
    68   30   31 1
    69   30   77 1
    70   31   40 1
    71   31   32 1
    72   31   78 1
    73   32   33 1
    74   32   79 1
    75   33   38 ar
    76   33   34 ar
    77   34   35 ar
    78   34   80 1
    79   35   36 ar
    80   35   81 1
    81   36   37 ar
    82   36   41 1
    83   37   38 ar
    84   37   82 1
    85   38   39 1
    86   39   40 1
    87   39   83 1
    88   39   84 1
    89   40   85 1
    90   40   86 1
    91   41   87 1
    92   42   88 1
    93   43   89 1
    94   43   90 1
    95   43   91 1
@<TRIPOS>MOLECULE
CHEMBL71668__6
   91    95     0     0     0
SMALL
USER_CHARGES

@<TRIPOS>ATOM
      1 C1          0.3775    1.8145   -0.3085 C.3       1 <0>        -0.1271
      2 C2          0.3327    0.3086   -0.2739 C.ar      1 <0>        -0.0246
      3 C3          0.3144   -0.4096   -1.4549 C.ar      1 <0>        -0.1425
      4 C4          0.2733   -1.7910   -1.4233 C.ar      1 <0>        -0.0096
      5 C5          0.2508   -2.4542   -0.2106 C.ar      1 <0>        -0.7103
      6 C6          0.2700   -1.7360    0.9704 C.ar      1 <0>        -0.0209
      7 C7          0.3155   -0.3547    0.9387 C.ar      1 <0>        -0.1426
      8 S1          0.1972   -4.2149   -0.1702 S.o2      1 <0>         2.6987
      9 O1         -0.3672   -4.5754    1.0831 O.2       1 <0>        -0.9674
     10 O2         -0.3642   -4.6326   -1.4070 O.2       1 <0>        -0.9342
     11 O3          1.6368   -4.7087   -0.1572 O.3       1 <0>        -0.7279
     12 C8          2.2948   -4.5489    1.1012 C.3       1 <0>         0.0602
     13 C9          3.7274   -5.0760    0.9983 C.3       1 <0>        -0.1186
     14 C10         4.4318   -4.9049    2.3457 C.3       1 <0>        -0.1221
     15 C11         5.8644   -5.4320    2.2428 C.3       1 <0>        -0.1194
     16 C12         6.5689   -5.2609    3.5901 C.3       1 <0>        -0.1208
     17 C13         8.0015   -5.7880    3.4872 C.3       1 <0>        -0.1206
     18 C14         8.7059   -5.6169    4.8346 C.3       1 <0>        -0.1202
     19 C15        10.1386   -6.1440    4.7316 C.3       1 <0>        -0.1193
     20 C16        10.8430   -5.9729    6.0790 C.3       1 <0>        -0.1228
     21 C17        12.2756   -6.5000    5.9761 C.3       1 <0>        -0.1178
     22 C18        12.9804   -6.3288    7.3240 C.3       1 <0>        -0.0753
     23 H1         12.2782   -6.7390    8.0797 H         1 <0>         0.0686
     24 C19        14.2414   -7.1797    7.3985 C.3       1 <0>        -0.0908
     25 C20        15.4542   -6.4986    6.8232 C.3       1 <0>        -0.0487
     26 C21        16.8072   -7.1128    7.2280 C.3       1 <0>         0.1045
     27 H2         16.7644   -7.4562    8.2564 H         1 <0>         0.0563
     28 C22        17.8133   -5.9448    7.0759 C.3       1 <0>        -0.1567
     29 C23        16.9682   -4.6487    6.9328 C.3       1 <0>        -0.1121
     30 C24        15.5847   -5.0811    7.4282 C.3       1 <0>        -0.0802
     31 C25        14.4042   -4.2480    6.9900 C.3       1 <0>        -0.0652
     32 C26        13.1535   -4.8542    7.6301 C.3       1 <0>        -0.0351
     33 C27        13.1150   -4.6036    9.1128 C.ar      1 <0>        -0.0685
     34 C28        12.1881   -5.3073    9.8728 C.ar      1 <0>        -0.1053
     35 C29        12.1221   -5.1449   11.2402 C.ar      1 <0>        -0.1476
     36 C30        12.9766   -4.2519   11.8694 C.ar      1 <0>         0.1015
     37 C31        13.8790   -3.5258   11.1124 C.ar      1 <0>        -0.1476
     38 C32        13.9417   -3.6936    9.7361 C.ar      1 <0>        -0.0582
     39 C33        14.9204   -2.8380    8.9749 C.3       1 <0>        -0.0829
     40 C34        14.5595   -2.8066    7.4928 C.3       1 <0>        -0.1155
     41 O4         12.9283   -4.0925   13.2180 O.3       1 <0>        -0.5003
     42 O5         17.1378   -8.1800    6.3411 O.3       1 <0>        -0.5577
     43 C35        15.4076   -6.4628    5.2962 C.3       1 <0>        -0.1280
     44 H3          1.4155    2.1470   -0.3190 H         1 <0>         0.0810
     45 H4         -0.1278    2.1726   -1.2054 H         1 <0>         0.0746
     46 H5         -0.1228    2.2133    0.5741 H         1 <0>         0.0743
     47 H6          0.3320    0.1085   -2.4024 H         1 <0>         0.1352
     48 H7          0.2583   -2.3520   -2.3459 H         1 <0>         0.1433
     49 H8          0.2521   -2.2541    1.9178 H         1 <0>         0.1414
     50 H9          0.3342    0.2062    1.8614 H         1 <0>         0.1347
     51 H10         2.3147   -3.4925    1.3692 H         1 <0>         0.0838
     52 H11         1.7561   -5.1078    1.8665 H         1 <0>         0.1038
     53 H12         3.7075   -6.1324    0.7303 H         1 <0>         0.0830
     54 H13         4.2661   -4.5172    0.2331 H         1 <0>         0.0805
     55 H14         4.4517   -3.8485    2.6137 H         1 <0>         0.0677
     56 H15         3.8931   -5.4638    3.1109 H         1 <0>         0.0702
     57 H16         5.8445   -6.4884    1.9748 H         1 <0>         0.0652
     58 H17         6.4031   -4.8732    1.4775 H         1 <0>         0.0642
     59 H18         6.5888   -4.2045    3.8581 H         1 <0>         0.0614
     60 H19         6.0302   -5.8198    4.3553 H         1 <0>         0.0623
     61 H20         7.9816   -6.8444    3.2192 H         1 <0>         0.0612
     62 H21         8.5402   -5.2292    2.7220 H         1 <0>         0.0607
     63 H22         8.7259   -4.5605    5.1025 H         1 <0>         0.0599
     64 H23         8.1672   -6.1758    5.5998 H         1 <0>         0.0603
     65 H24        10.1187   -7.2004    4.4636 H         1 <0>         0.0606
     66 H25        10.6773   -5.5852    3.9664 H         1 <0>         0.0605
     67 H26        10.8629   -4.9165    6.3470 H         1 <0>         0.0632
     68 H27        10.3043   -6.5318    6.8442 H         1 <0>         0.0597
     69 H28        12.2557   -7.5564    5.7081 H         1 <0>         0.0641
     70 H29        12.8143   -5.9412    5.2108 H         1 <0>         0.0667
     71 H30        14.4414   -7.4383    8.4518 H         1 <0>         0.0544
     72 H31        14.0738   -8.1298    6.8685 H         1 <0>         0.0653
     73 H32        18.4466   -5.8802    7.9612 H         1 <0>         0.0638
     74 H33        18.4280   -6.0918    6.1882 H         1 <0>         0.0730
     75 H34        17.3740   -3.8600    7.5714 H         1 <0>         0.0632
     76 H35        16.9371   -4.3116    5.8993 H         1 <0>         0.0705
     77 H36        15.6023   -5.1525    8.5253 H         1 <0>         0.0785
     78 H37        14.3014   -4.2309    5.9056 H         1 <0>         0.0833
     79 H38        12.2902   -4.3292    7.1991 H         1 <0>         0.0821
     80 H39        11.4903   -5.9786    9.3948 H         1 <0>         0.1262
     81 H40        11.4085   -5.7138   11.8183 H         1 <0>         0.1262
     82 H41        14.5394   -2.8216   11.5969 H         1 <0>         0.1251
     83 H42        14.8866   -1.8213    9.3721 H         1 <0>         0.0727
     84 H43        15.9256   -3.2345    9.1007 H         1 <0>         0.0797
     85 H44        15.3513   -2.3086    6.9325 H         1 <0>         0.0702
     86 H45        13.6212   -2.2692    7.3540 H         1 <0>         0.0657
     87 H46        13.5134   -4.6882   13.7057 H         1 <0>         0.3896
     88 H47        17.9801   -8.6109    6.5410 H         1 <0>         0.3739
     89 H48        14.5860   -5.8238    4.9726 H         1 <0>         0.0544
     90 H49        16.3483   -6.0670    4.9132 H         1 <0>         0.0540
     91 H50        15.2555   -7.4720    4.9136 H         1 <0>         0.0591
@<TRIPOS>BOND
     1    1    2 1
     2    1   44 1
     3    1   45 1
     4    1   46 1
     5    2    7 ar
     6    2    3 ar
     7    3    4 ar
     8    3   47 1
     9    4    5 ar
    10    4   48 1
    11    5    6 ar
    12    5    8 1
    13    6    7 ar
    14    6   49 1
    15    7   50 1
    16    8    9 2
    17    8   10 2
    18    8   11 1
    19   11   12 1
    20   12   13 1
    21   12   51 1
    22   12   52 1
    23   13   14 1
    24   13   53 1
    25   13   54 1
    26   14   15 1
    27   14   55 1
    28   14   56 1
    29   15   16 1
    30   15   57 1
    31   15   58 1
    32   16   17 1
    33   16   59 1
    34   16   60 1
    35   17   18 1
    36   17   61 1
    37   17   62 1
    38   18   19 1
    39   18   63 1
    40   18   64 1
    41   19   20 1
    42   19   65 1
    43   19   66 1
    44   20   21 1
    45   20   67 1
    46   20   68 1
    47   21   22 1
    48   21   69 1
    49   21   70 1
    50   22   23 1
    51   22   32 1
    52   22   24 1
    53   24   25 1
    54   24   71 1
    55   24   72 1
    56   25   30 1
    57   25   26 1
    58   25   43 1
    59   26   27 1
    60   26   28 1
    61   26   42 1
    62   28   29 1
    63   28   73 1
    64   28   74 1
    65   29   30 1
    66   29   75 1
    67   29   76 1
    68   30   31 1
    69   30   77 1
    70   31   40 1
    71   31   32 1
    72   31   78 1
    73   32   33 1
    74   32   79 1
    75   33   38 ar
    76   33   34 ar
    77   34   35 ar
    78   34   80 1
    79   35   36 ar
    80   35   81 1
    81   36   37 ar
    82   36   41 1
    83   37   38 ar
    84   37   82 1
    85   38   39 1
    86   39   40 1
    87   39   83 1
    88   39   84 1
    89   40   85 1
    90   40   86 1
    91   41   87 1
    92   42   88 1
    93   43   89 1
    94   43   90 1
    95   43   91 1
@<TRIPOS>MOLECULE
CHEMBL71668__7
   91    95     0     0     0
SMALL
USER_CHARGES

@<TRIPOS>ATOM
      1 C1          0.4329    2.1660   -0.1706 C.3       1 <0>        -0.1270
      2 C2          0.3484    0.6620   -0.1269 C.ar      1 <0>        -0.0247
      3 C3          0.2961   -0.0619   -1.3034 C.ar      1 <0>        -0.1425
      4 C4          0.2186   -1.4414   -1.2632 C.ar      1 <0>        -0.0096
      5 C5          0.1940   -2.0972   -0.0466 C.ar      1 <0>        -0.7102
      6 C6          0.2472   -1.3734    1.1299 C.ar      1 <0>        -0.0209
      7 C7          0.3290    0.0059    1.0897 C.ar      1 <0>        -0.1426
      8 S1          0.0941   -3.8556    0.0046 S.o2      1 <0>         2.6987
      9 O1         -0.4637   -4.1942    1.2669 O.2       1 <0>        -0.9674
     10 O2         -0.4940   -4.2649   -1.2226 O.2       1 <0>        -0.9342
     11 O3          1.5201   -4.3876    0.0024 O.3       1 <0>        -0.7279
     12 C8          2.1980   -4.2386    1.2515 C.3       1 <0>         0.0603
     13 C9          3.6147   -4.8043    1.1336 C.3       1 <0>        -0.1187
     14 C10         4.3405   -4.6447    2.4709 C.3       1 <0>        -0.1219
     15 C11         5.7572   -5.2104    2.3530 C.3       1 <0>        -0.1195
     16 C12         6.4830   -5.0508    3.6904 C.3       1 <0>        -0.1205
     17 C13         7.8997   -5.6165    3.5725 C.3       1 <0>        -0.1207
     18 C14         8.6255   -5.4569    4.9099 C.3       1 <0>        -0.1193
     19 C15        10.0422   -6.0227    4.7920 C.3       1 <0>        -0.1188
     20 C16        10.7680   -5.8631    6.1294 C.3       1 <0>        -0.1207
     21 C17        12.1847   -6.4288    6.0115 C.3       1 <0>        -0.1215
     22 C18        12.9101   -6.2693    7.3481 C.3       1 <0>        -0.0681
     23 H1         12.9030   -5.1850    7.5852 H         1 <0>         0.0625
     24 C19        12.1525   -6.9786    8.4704 C.3       1 <0>        -0.0981
     25 C20        12.4592   -8.4468    8.5694 C.3       1 <0>        -0.0482
     26 C21        12.0991   -9.1123    9.9111 C.3       1 <0>         0.1040
     27 H2         12.3462   -8.4466   10.7312 H         1 <0>         0.0578
     28 C22        12.9870  -10.3820    9.9412 C.3       1 <0>        -0.1570
     29 C23        14.0887  -10.1760    8.8637 C.3       1 <0>        -0.1106
     30 C24        13.9889   -8.6849    8.5400 C.3       1 <0>        -0.0798
     31 C25        14.5216   -8.2102    7.2125 C.3       1 <0>        -0.0677
     32 C26        14.3627   -6.6830    7.2236 C.3       1 <0>        -0.0354
     33 C27        15.0463   -6.0666    6.0388 C.ar      1 <0>        -0.0686
     34 C28        14.7712   -4.7405    5.7280 C.ar      1 <0>        -0.0997
     35 C29        15.3550   -4.1325    4.6378 C.ar      1 <0>        -0.1480
     36 C30        16.2383   -4.8488    3.8432 C.ar      1 <0>         0.1023
     37 C31        16.5375   -6.1605    4.1669 C.ar      1 <0>        -0.1477
     38 C32        15.9590   -6.7655    5.2741 C.ar      1 <0>        -0.0588
     39 C33        16.3921   -8.1703    5.6052 C.3       1 <0>        -0.0822
     40 C34        16.0108   -8.5243    7.0441 C.3       1 <0>        -0.1147
     41 O4         16.8057   -4.2667    2.7548 O.3       1 <0>        -0.5000
     42 O5         10.7175   -9.4617    9.9225 O.3       1 <0>        -0.5567
     43 C35        11.7457   -9.2394    7.4735 C.3       1 <0>        -0.1301
     44 H3          1.4791    2.4706   -0.1961 H         1 <0>         0.0810
     45 H4         -0.0741    2.5325   -1.0632 H         1 <0>         0.0745
     46 H5         -0.0454    2.5827    0.7158 H         1 <0>         0.0743
     47 H6          0.3153    0.4505   -2.2539 H         1 <0>         0.1352
     48 H7          0.1770   -2.0069   -2.1824 H         1 <0>         0.1433
     49 H8          0.2277   -1.8858    2.0805 H         1 <0>         0.1414
     50 H9          0.3744    0.5712    2.0089 H         1 <0>         0.1347
     51 H10         2.2494   -3.1817    1.5131 H         1 <0>         0.0838
     52 H11         1.6544   -4.7787    2.0266 H         1 <0>         0.1039
     53 H12         3.5632   -5.8612    0.8719 H         1 <0>         0.0830
     54 H13         4.1582   -4.2641    0.3584 H         1 <0>         0.0805
     55 H14         4.3919   -3.5878    2.7326 H         1 <0>         0.0676
     56 H15         3.7969   -5.1849    3.2461 H         1 <0>         0.0703
     57 H16         5.7057   -6.2673    2.0914 H         1 <0>         0.0652
     58 H17         6.3008   -4.6703    1.5779 H         1 <0>         0.0641
     59 H18         6.5344   -3.9939    3.9521 H         1 <0>         0.0611
     60 H19         5.9394   -5.5910    4.4656 H         1 <0>         0.0624
     61 H20         7.8482   -6.6734    3.3109 H         1 <0>         0.0611
     62 H21         8.4433   -5.0764    2.7974 H         1 <0>         0.0603
     63 H22         8.6769   -4.4001    5.1715 H         1 <0>         0.0592
     64 H23         8.0819   -5.9971    5.6851 H         1 <0>         0.0605
     65 H24         9.9907   -7.0795    4.5304 H         1 <0>         0.0597
     66 H25        10.5858   -5.4825    4.0169 H         1 <0>         0.0587
     67 H26        10.8194   -4.8062    6.3910 H         1 <0>         0.0572
     68 H27        10.2244   -6.4032    6.9045 H         1 <0>         0.0660
     69 H28        12.1333   -7.4857    5.7499 H         1 <0>         0.0679
     70 H29        12.7283   -5.8886    5.2364 H         1 <0>         0.0663
     71 H30        12.3905   -6.4943    9.4296 H         1 <0>         0.0551
     72 H31        11.0700   -6.8483    8.3107 H         1 <0>         0.0749
     73 H32        13.4438  -10.4952   10.9245 H         1 <0>         0.0645
     74 H33        12.3908  -11.2626    9.7034 H         1 <0>         0.0735
     75 H34        15.0718  -10.4105    9.2832 H         1 <0>         0.0638
     76 H35        13.9035  -10.7929    7.9880 H         1 <0>         0.0710
     77 H36        14.4667   -8.1097    9.3493 H         1 <0>         0.0726
     78 H37        13.9778   -8.6408    6.3784 H         1 <0>         0.0830
     79 H38        14.8842   -6.3158    8.1179 H         1 <0>         0.0729
     80 H39        14.0961   -4.1725    6.3517 H         1 <0>         0.1242
     81 H40        15.1274   -3.1026    4.4041 H         1 <0>         0.1263
     82 H41        17.2257   -6.7194    3.5497 H         1 <0>         0.1253
     83 H42        15.9056   -8.8663    4.9246 H         1 <0>         0.0774
     84 H43        17.4723   -8.2469    5.4934 H         1 <0>         0.0754
     85 H44        16.5949   -7.9240    7.7388 H         1 <0>         0.0658
     86 H45        16.1867   -9.5836    7.2216 H         1 <0>         0.0720
     87 H46        17.6439   -3.8211    2.9391 H         1 <0>         0.3897
     88 H47        10.4257   -9.8857   10.7412 H         1 <0>         0.3744
     89 H48        12.1676   -8.9783    6.5030 H         1 <0>         0.0558
     90 H49        11.8781  -10.3065    7.6521 H         1 <0>         0.0541
     91 H50        10.6827   -8.9983    7.4843 H         1 <0>         0.0599
@<TRIPOS>BOND
     1    1    2 1
     2    1   44 1
     3    1   45 1
     4    1   46 1
     5    2    7 ar
     6    2    3 ar
     7    3    4 ar
     8    3   47 1
     9    4    5 ar
    10    4   48 1
    11    5    6 ar
    12    5    8 1
    13    6    7 ar
    14    6   49 1
    15    7   50 1
    16    8    9 2
    17    8   10 2
    18    8   11 1
    19   11   12 1
    20   12   13 1
    21   12   51 1
    22   12   52 1
    23   13   14 1
    24   13   53 1
    25   13   54 1
    26   14   15 1
    27   14   55 1
    28   14   56 1
    29   15   16 1
    30   15   57 1
    31   15   58 1
    32   16   17 1
    33   16   59 1
    34   16   60 1
    35   17   18 1
    36   17   61 1
    37   17   62 1
    38   18   19 1
    39   18   63 1
    40   18   64 1
    41   19   20 1
    42   19   65 1
    43   19   66 1
    44   20   21 1
    45   20   67 1
    46   20   68 1
    47   21   22 1
    48   21   69 1
    49   21   70 1
    50   22   23 1
    51   22   32 1
    52   22   24 1
    53   24   25 1
    54   24   71 1
    55   24   72 1
    56   25   30 1
    57   25   26 1
    58   25   43 1
    59   26   27 1
    60   26   28 1
    61   26   42 1
    62   28   29 1
    63   28   73 1
    64   28   74 1
    65   29   30 1
    66   29   75 1
    67   29   76 1
    68   30   31 1
    69   30   77 1
    70   31   40 1
    71   31   32 1
    72   31   78 1
    73   32   33 1
    74   32   79 1
    75   33   38 ar
    76   33   34 ar
    77   34   35 ar
    78   34   80 1
    79   35   36 ar
    80   35   81 1
    81   36   37 ar
    82   36   41 1
    83   37   38 ar
    84   37   82 1
    85   38   39 1
    86   39   40 1
    87   39   83 1
    88   39   84 1
    89   40   85 1
    90   40   86 1
    91   41   87 1
    92   42   88 1
    93   43   89 1
    94   43   90 1
    95   43   91 1
@<TRIPOS>MOLECULE
CHEMBL328810
   71    75     0     0     0
SMALL
USER_CHARGES

@<TRIPOS>ATOM
      1 C1          0.1473    1.6196    0.3079 C.3       1 <0>        -0.1502
      2 C2          0.3675    0.1339    0.0164 C.3       1 <0>         0.2843
      3 C3         -0.9146   -0.6214    0.2629 C.ar      1 <0>        -0.0892
      4 C4         -2.0811   -0.1147   -0.2951 C.ar      1 <0>        -0.0998
      5 C5         -3.2840   -0.7636   -0.1154 C.ar      1 <0>        -0.1472
      6 C6         -3.3285   -1.9340    0.6286 C.ar      1 <0>         0.1123
      7 C7         -2.1661   -2.4359    1.1876 C.ar      1 <0>        -0.1476
      8 C8         -0.9562   -1.7773    1.0104 C.ar      1 <0>        -0.0410
      9 C9          0.2619   -2.3675    1.6710 C.3       1 <0>        -0.1036
     10 C10         1.5411   -1.8466    1.0177 C.3       1 <0>         0.1354
     11 N1          1.4228   -0.3844    0.8934 N.pl3     1 <0>        -0.6597
     12 C11         2.2808    0.4750    1.5835 C.ar      1 <0>         0.1803
     13 C12         2.2048    0.5712    2.9672 C.ar      1 <0>        -0.1326
     14 C13         3.0551    1.4215    3.6464 C.ar      1 <0>        -0.1050
     15 C14         3.9810    2.1770    2.9506 C.ar      1 <0>        -0.1276
     16 C15         4.0593    2.0836    1.5731 C.ar      1 <0>        -0.1080
     17 C16         3.2160    1.2310    0.8881 C.ar      1 <0>        -0.1371
     18 O1         -4.5082   -2.5844    0.8080 O.3       1 <0>        -0.4975
     19 C17         0.7815   -0.0388   -1.4223 C.ar      1 <0>        -0.1019
     20 C18         1.9979   -0.6221   -1.7252 C.ar      1 <0>        -0.0648
     21 C19         2.3799   -0.7811   -3.0433 C.ar      1 <0>        -0.1413
     22 C20         1.5416   -0.3554   -4.0634 C.ar      1 <0>         0.1093
     23 C21         0.3213    0.2291   -3.7568 C.ar      1 <0>        -0.1996
     24 C22        -0.0583    0.3811   -2.4373 C.ar      1 <0>        -0.0740
     25 O2          1.9152   -0.5104   -5.3608 O.3       1 <0>        -0.3290
     26 C23         1.0021   -0.0490   -6.3584 C.3       1 <0>         0.0246
     27 C24         1.5910   -0.3062   -7.7469 C.3       1 <0>        -0.0080
     28 N2          1.7239   -1.7533   -7.9621 N.4       1 <0>        -0.3668
     29 C25         2.5100   -1.9789   -9.1906 C.3       1 <0>        -0.0036
     30 C26         3.1519   -3.3406   -9.0986 C.3       1 <0>        -0.1501
     31 C27         2.3116   -4.4096   -9.8219 C.3       1 <0>        -0.1309
     32 C28         0.8023   -4.2179   -9.5703 C.3       1 <0>        -0.1388
     33 C29         0.5003   -3.8545   -8.1389 C.3       1 <0>        -0.1341
     34 C30         0.4481   -2.3178   -8.0097 C.3       1 <0>        -0.0398
     35 H1          1.0439    2.1791    0.0410 H         1 <0>         0.0695
     36 H2         -0.6963    1.9838   -0.2785 H         1 <0>         0.0686
     37 H3         -0.0626    1.7544    1.3690 H         1 <0>         0.0710
     38 H4         -2.0455    0.7960   -0.8746 H         1 <0>         0.1268
     39 H5         -4.1873   -0.3628   -0.5512 H         1 <0>         0.1302
     40 H6         -2.2002   -3.3471    1.7663 H         1 <0>         0.1292
     41 H7          0.2632   -2.0977    2.7270 H         1 <0>         0.0832
     42 H8          0.2289   -3.4531    1.5792 H         1 <0>         0.0827
     43 H9          2.4007   -2.0955    1.6400 H         1 <0>         0.0832
     44 H10         1.6586   -2.2924    0.0300 H         1 <0>         0.0636
     45 H11         1.4814   -0.0180    3.5111 H         1 <0>         0.1204
     46 H12         2.9965    1.4968    4.7222 H         1 <0>         0.1233
     47 H13         4.6443    2.8417    3.4841 H         1 <0>         0.1224
     48 H14         4.7836    2.6750    1.0327 H         1 <0>         0.1214
     49 H15         3.2807    1.1552   -0.1873 H         1 <0>         0.1183
     50 H16        -4.7013   -3.2438    0.1275 H         1 <0>         0.3917
     51 H17         2.6502   -0.9533   -0.9307 H         1 <0>         0.1425
     52 H18         3.3305   -1.2361   -3.2793 H         1 <0>         0.1310
     53 H19        -0.3331    0.5613   -4.5492 H         1 <0>         0.1261
     54 H20        -1.0101    0.8321   -2.1982 H         1 <0>         0.1313
     55 H21         0.0567   -0.5825   -6.2602 H         1 <0>         0.0862
     56 H22         0.8314    1.0197   -6.2284 H         1 <0>         0.1094
     57 H23         0.9309    0.1148   -8.5053 H         1 <0>         0.1498
     58 H24         2.5721    0.1633   -7.8181 H         1 <0>         0.1443
     59 H25         1.8530   -1.9403  -10.0595 H         1 <0>         0.1337
     60 H26         3.2817   -1.2141   -9.2786 H         1 <0>         0.1349
     61 H27         4.1423   -3.2990   -9.5519 H         1 <0>         0.1089
     62 H28         3.2530   -3.6167   -8.0490 H         1 <0>         0.0821
     63 H29         2.5039   -4.3478  -10.8930 H         1 <0>         0.0806
     64 H30         2.6086   -5.3959   -9.4654 H         1 <0>         0.0817
     65 H31         0.4340   -3.4249  -10.2211 H         1 <0>         0.0692
     66 H32         0.2830   -5.1440   -9.8166 H         1 <0>         0.0866
     67 H33        -0.4621   -4.2776   -7.8507 H         1 <0>         0.1087
     68 H34         1.2823   -4.2487   -7.4899 H         1 <0>         0.0874
     69 H35        -0.0892   -2.0569   -7.0979 H         1 <0>         0.1278
     70 H36        -0.0890   -1.9082   -8.8652 H         1 <0>         0.1287
     71 H37         2.2249   -2.1511   -7.1817 H         1 <0>         0.4258
@<TRIPOS>BOND
     1    1    2 1
     2    1   35 1
     3    1   36 1
     4    1   37 1
     5    2   11 1
     6    2    3 1
     7    2   19 1
     8    3    8 ar
     9    3    4 ar
    10    4    5 ar
    11    4   38 1
    12    5    6 ar
    13    5   39 1
    14    6    7 ar
    15    6   18 1
    16    7    8 ar
    17    7   40 1
    18    8    9 1
    19    9   10 1
    20    9   41 1
    21    9   42 1
    22   10   11 1
    23   10   43 1
    24   10   44 1
    25   11   12 1
    26   12   17 ar
    27   12   13 ar
    28   13   14 ar
    29   13   45 1
    30   14   15 ar
    31   14   46 1
    32   15   16 ar
    33   15   47 1
    34   16   17 ar
    35   16   48 1
    36   17   49 1
    37   18   50 1
    38   19   24 ar
    39   19   20 ar
    40   20   21 ar
    41   20   51 1
    42   21   22 ar
    43   21   52 1
    44   22   23 ar
    45   22   25 1
    46   23   24 ar
    47   23   53 1
    48   24   54 1
    49   25   26 1
    50   26   27 1
    51   26   55 1
    52   26   56 1
    53   27   28 1
    54   27   57 1
    55   27   58 1
    56   28   34 1
    57   28   29 1
    58   28   71 1
    59   29   30 1
    60   29   59 1
    61   29   60 1
    62   30   31 1
    63   30   61 1
    64   30   62 1
    65   31   32 1
    66   31   63 1
    67   31   64 1
    68   32   33 1
    69   32   65 1
    70   32   66 1
    71   33   34 1
    72   33   67 1
    73   33   68 1
    74   34   69 1
    75   34   70 1
@<TRIPOS>MOLECULE
CHEMBL328810__1
   71    75     0     0     0
SMALL
USER_CHARGES

@<TRIPOS>ATOM
      1 C1          0.5984    1.1028    0.2495 C.3       1 <0>        -0.1493
      2 C2          0.4133   -0.4083    0.4024 C.3       1 <0>         0.2845
      3 C3          1.0028   -1.1099   -0.7956 C.ar      1 <0>        -0.0906
      4 C4          0.6622   -0.6351   -2.0554 C.ar      1 <0>        -0.0998
      5 C5          1.1593   -1.2389   -3.1907 C.ar      1 <0>        -0.1470
      6 C6          2.0064   -2.3315   -3.0725 C.ar      1 <0>         0.1132
      7 C7          2.3485   -2.8014   -1.8164 C.ar      1 <0>        -0.1472
      8 C8          1.8513   -2.1878   -0.6738 C.ar      1 <0>        -0.0409
      9 C9          2.2887   -2.7370    0.6587 C.3       1 <0>        -0.1034
     10 C10         1.3276   -2.3075    1.7660 C.3       1 <0>         0.1348
     11 N1          1.0890   -0.8618    1.6227 N.pl3     1 <0>        -0.6594
     12 C11         1.4906    0.0419    2.6091 C.ar      1 <0>         0.1823
     13 C12         0.5394    0.7229    3.3582 C.ar      1 <0>        -0.1384
     14 C13         0.9399    1.6153    4.3331 C.ar      1 <0>        -0.1079
     15 C14         2.2861    1.8316    4.5637 C.ar      1 <0>        -0.1289
     16 C15         3.2357    1.1554    3.8199 C.ar      1 <0>        -0.1043
     17 C16         2.8421    0.2573    2.8473 C.ar      1 <0>        -0.1334
     18 O1          2.4977   -2.9378   -4.1851 O.3       1 <0>        -0.4995
     19 C17        -1.0568   -0.7265    0.4955 C.ar      1 <0>        -0.1025
     20 C18        -1.5577   -1.3508    1.6229 C.ar      1 <0>        -0.0647
     21 C19        -2.9049   -1.6440    1.7105 C.ar      1 <0>        -0.1414
     22 C20        -3.7554   -1.3110    0.6663 C.ar      1 <0>         0.1097
     23 C21        -3.2503   -0.6841   -0.4637 C.ar      1 <0>        -0.1993
     24 C22        -1.9033   -0.3885   -0.5442 C.ar      1 <0>        -0.0736
     25 O2         -5.0809   -1.5987    0.7499 O.3       1 <0>        -0.3294
     26 C23        -5.8969   -1.2270   -0.3628 C.3       1 <0>         0.0245
     27 C24        -7.3475   -1.6283   -0.0881 C.3       1 <0>        -0.0077
     28 N2         -7.8491   -0.8854    1.0758 N.4       1 <0>        -0.3667
     29 C25        -9.1537   -1.4505    1.4717 C.3       1 <0>        -0.0036
     30 C26        -9.3766   -1.1490    2.9326 C.3       1 <0>        -0.1500
     31 C27       -10.2283    0.1201    3.1224 C.3       1 <0>        -0.1308
     32 C28        -9.8314    1.2297    2.1279 C.3       1 <0>        -0.1388
     33 C29        -8.3380    1.3364    1.9525 C.3       1 <0>        -0.1340
     34 C30        -7.9092    0.4706    0.7494 C.3       1 <0>        -0.0396
     35 H1          1.6614    1.3429    0.2741 H         1 <0>         0.0707
     36 H2          0.1747    1.4264   -0.7012 H         1 <0>         0.0684
     37 H3          0.0911    1.6155    1.0667 H         1 <0>         0.0687
     38 H4          0.0016    0.2145   -2.1466 H         1 <0>         0.1263
     39 H5          0.8905   -0.8636   -4.1671 H         1 <0>         0.1303
     40 H6          3.0074   -3.6521   -1.7239 H         1 <0>         0.1294
     41 H7          2.3130   -3.8255    0.6073 H         1 <0>         0.0834
     42 H8          3.2881   -2.3673    0.8882 H         1 <0>         0.0828
     43 H9          0.3863   -2.8482    1.6674 H         1 <0>         0.0645
     44 H10         1.7716   -2.5133    2.7400 H         1 <0>         0.0834
     45 H11        -0.5122    0.5549    3.1781 H         1 <0>         0.1179
     46 H12         0.2009    2.1451    4.9158 H         1 <0>         0.1206
     47 H13         2.5966    2.5306    5.3262 H         1 <0>         0.1221
     48 H14         4.2862    1.3267    4.0025 H         1 <0>         0.1233
     49 H15         3.5842   -0.2739    2.2698 H         1 <0>         0.1205
     50 H16         3.3373   -2.5712   -4.4946 H         1 <0>         0.3944
     51 H17        -0.8952   -1.6098    2.4355 H         1 <0>         0.1423
     52 H18        -3.2956   -2.1323    2.5910 H         1 <0>         0.1310
     53 H19        -3.9104   -0.4239   -1.2779 H         1 <0>         0.1263
     54 H20        -1.5104    0.1035   -1.4217 H         1 <0>         0.1312
     55 H21        -5.8400   -0.1486   -0.5109 H         1 <0>         0.0866
     56 H22        -5.5427   -1.7359   -1.2593 H         1 <0>         0.1093
     57 H23        -7.9601   -1.3956   -0.9591 H         1 <0>         0.1497
     58 H24        -7.3963   -2.6981    0.1152 H         1 <0>         0.1440
     59 H25        -9.9465   -0.9960    0.8776 H         1 <0>         0.1336
     60 H26        -9.1494   -2.5293    1.3157 H         1 <0>         0.1348
     61 H27        -9.8865   -1.9931    3.3969 H         1 <0>         0.1088
     62 H28        -8.4113   -1.0063    3.4183 H         1 <0>         0.0822
     63 H29       -11.2784   -0.1314    2.9735 H         1 <0>         0.0805
     64 H30       -10.0937    0.4894    4.1390 H         1 <0>         0.0817
     65 H31       -10.2861    1.0160    1.1606 H         1 <0>         0.0692
     66 H32       -10.2130    2.1835    2.4923 H         1 <0>         0.0866
     67 H33        -8.0658    2.3758    1.7691 H         1 <0>         0.1088
     68 H34        -7.8388    0.9810    2.8539 H         1 <0>         0.0874
     69 H35        -6.9262    0.7973    0.4101 H         1 <0>         0.1279
     70 H36        -8.6259    0.6088   -0.0601 H         1 <0>         0.1285
     71 H37        -7.2009   -1.0059    1.8396 H         1 <0>         0.4260
@<TRIPOS>BOND
     1    1    2 1
     2    1   35 1
     3    1   36 1
     4    1   37 1
     5    2   11 1
     6    2    3 1
     7    2   19 1
     8    3    8 ar
     9    3    4 ar
    10    4    5 ar
    11    4   38 1
    12    5    6 ar
    13    5   39 1
    14    6    7 ar
    15    6   18 1
    16    7    8 ar
    17    7   40 1
    18    8    9 1
    19    9   10 1
    20    9   41 1
    21    9   42 1
    22   10   11 1
    23   10   43 1
    24   10   44 1
    25   11   12 1
    26   12   17 ar
    27   12   13 ar
    28   13   14 ar
    29   13   45 1
    30   14   15 ar
    31   14   46 1
    32   15   16 ar
    33   15   47 1
    34   16   17 ar
    35   16   48 1
    36   17   49 1
    37   18   50 1
    38   19   24 ar
    39   19   20 ar
    40   20   21 ar
    41   20   51 1
    42   21   22 ar
    43   21   52 1
    44   22   23 ar
    45   22   25 1
    46   23   24 ar
    47   23   53 1
    48   24   54 1
    49   25   26 1
    50   26   27 1
    51   26   55 1
    52   26   56 1
    53   27   28 1
    54   27   57 1
    55   27   58 1
    56   28   34 1
    57   28   29 1
    58   28   71 1
    59   29   30 1
    60   29   59 1
    61   29   60 1
    62   30   31 1
    63   30   61 1
    64   30   62 1
    65   31   32 1
    66   31   63 1
    67   31   64 1
    68   32   33 1
    69   32   65 1
    70   32   66 1
    71   33   34 1
    72   33   67 1
    73   33   68 1
    74   34   69 1
    75   34   70 1
@<TRIPOS>MOLECULE
CHEMBL46408
   58    62     0     0     0
SMALL
USER_CHARGES

@<TRIPOS>ATOM
      1 C1          0.4017    0.9949   -0.0151 C.ar      1 <0>        -0.0229
      2 C2          1.5828    1.6956    0.0888 C.ar      1 <0>        -0.1519
      3 C3          2.7774    1.0192    0.3061 C.ar      1 <0>         0.1482
      4 C4          2.7852   -0.3661    0.4194 C.ar      1 <0>        -0.2143
      5 C5          1.6083   -1.0739    0.3167 C.ar      1 <0>        -0.0170
      6 C6          0.4053   -0.3976    0.0987 C.ar      1 <0>        -0.1909
      7 C7         -0.8594   -1.1530   -0.0121 C.2       1 <0>         0.4636
      8 O1         -1.9173   -0.5577   -0.1172 O.2       1 <0>        -0.4287
      9 C8         -0.8421   -2.5708    0.0039 C.2       1 <0>        -0.1929
     10 C9         -0.8504   -3.3133    1.2678 C.ar      1 <0>        -0.0657
     11 C10        -0.8740   -2.7969    2.5828 C.ar      1 <0>        -0.0668
     12 C11        -0.8782   -3.6363    3.6661 C.ar      1 <0>        -0.1346
     13 C12        -0.8590   -5.0186    3.5064 C.ar      1 <0>         0.1334
     14 C13        -0.8356   -5.5543    2.2285 C.ar      1 <0>        -0.0975
     15 C14        -0.8318   -4.7139    1.1353 C.ar      1 <0>        -0.1061
     16 S1         -0.8047   -4.9923   -0.6169 S.3       1 <0>         0.0995
     17 C15        -0.8227   -3.3017   -1.1790 C.2       1 <0>        -0.0128
     18 C16        -0.8165   -2.7993   -2.5630 C.2       1 <0>        -0.0833
     19 C17        -0.9207   -3.6927   -3.6908 C.2       1 <0>        -0.1324
     20 C18        -0.9030   -3.1066   -4.9057 C.2       1 <0>        -0.1946
     21 S2         -0.7477   -1.3770   -4.5165 S.3       1 <0>         0.2029
     22 C19        -0.7166   -1.4549   -2.8408 C.2       1 <0>        -0.2248
     23 O2         -0.8626   -5.8354    4.5931 O.3       1 <0>        -0.4913
     24 O3          3.9395    1.7132    0.4074 O.3       1 <0>        -0.3238
     25 C20         5.1303    0.9555    0.6308 C.3       1 <0>         0.0227
     26 C21         6.3289    1.9026    0.7166 C.3       1 <0>        -0.0009
     27 N1          6.1755    2.7821    1.8832 N.4       1 <0>        -0.3846
     28 C22         7.2404    3.7922    1.8758 C.3       1 <0>        -0.0071
     29 C23         7.0385    4.7603    3.0435 C.3       1 <0>        -0.1468
     30 C24         7.0825    3.9795    4.3602 C.3       1 <0>        -0.1391
     31 C25         6.0165    2.8805    4.3264 C.3       1 <0>        -0.1455
     32 C26         6.2564    1.9821    3.1111 C.3       1 <0>        -0.0136
     33 H1         -0.5267    1.5216   -0.1799 H         1 <0>         0.1487
     34 H2          1.5809    2.7720    0.0009 H         1 <0>         0.1424
     35 H3          3.7155   -0.8881    0.5879 H         1 <0>         0.1351
     36 H4          1.6153   -2.1503    0.4042 H         1 <0>         0.1376
     37 H5         -0.8885   -1.7280    2.7360 H         1 <0>         0.1262
     38 H6         -0.8964   -3.2176    4.6614 H         1 <0>         0.1383
     39 H7         -0.8202   -6.6252    2.0894 H         1 <0>         0.1428
     40 H8         -1.0070   -4.7625   -3.5703 H         1 <0>         0.1481
     41 H9         -0.9674   -3.5733   -5.8775 H         1 <0>         0.1954
     42 H10        -0.6351   -0.6371   -2.1401 H         1 <0>         0.1821
     43 H11        -1.7469   -6.0826    4.8964 H         1 <0>         0.3995
     44 H12         5.0381    0.4007    1.5645 H         1 <0>         0.0893
     45 H13         5.2769    0.2576   -0.1935 H         1 <0>         0.1125
     46 H14         7.2451    1.3208    0.8180 H         1 <0>         0.1505
     47 H15         6.3803    2.5064   -0.1894 H         1 <0>         0.1437
     48 H16         8.2080    3.3002    1.9755 H         1 <0>         0.1295
     49 H17         7.2099    4.3449    0.9368 H         1 <0>         0.1314
     50 H18         7.8312    5.5084    3.0374 H         1 <0>         0.1134
     51 H19         6.0712    5.2530    2.9447 H         1 <0>         0.0881
     52 H20         8.0671    3.5286    4.4838 H         1 <0>         0.0823
     53 H21         6.8828    4.6554    5.1916 H         1 <0>         0.0950
     54 H22         6.0787    2.2850    5.2372 H         1 <0>         0.1126
     55 H23         5.0281    3.3342    4.2542 H         1 <0>         0.0879
     56 H24         5.4993    1.1984    3.0842 H         1 <0>         0.1270
     57 H25         7.2449    1.5287    3.1845 H         1 <0>         0.1308
     58 H26         5.2784    3.2418    1.8409 H         1 <0>         0.4292
@<TRIPOS>BOND
     1    1    6 ar
     2    1    2 ar
     3    1   33 1
     4    2    3 ar
     5    2   34 1
     6    3    4 ar
     7    3   24 1
     8    4    5 ar
     9    4   35 1
    10    5    6 ar
    11    5   36 1
    12    6    7 1
    13    7    8 2
    14    7    9 1
    15    9   17 2
    16    9   10 1
    17   10   15 ar
    18   10   11 ar
    19   11   12 ar
    20   11   37 1
    21   12   13 ar
    22   12   38 1
    23   13   14 ar
    24   13   23 1
    25   14   15 ar
    26   14   39 1
    27   15   16 1
    28   16   17 1
    29   17   18 1
    30   18   22 2
    31   18   19 1
    32   19   20 2
    33   19   40 1
    34   20   21 1
    35   20   41 1
    36   21   22 1
    37   22   42 1
    38   23   43 1
    39   24   25 1
    40   25   26 1
    41   25   44 1
    42   25   45 1
    43   26   27 1
    44   26   46 1
    45   26   47 1
    46   27   32 1
    47   27   28 1
    48   27   58 1
    49   28   29 1
    50   28   48 1
    51   28   49 1
    52   29   30 1
    53   29   50 1
    54   29   51 1
    55   30   31 1
    56   30   52 1
    57   30   53 1
    58   31   32 1
    59   31   54 1
    60   31   55 1
    61   32   56 1
    62   32   57 1
@<TRIPOS>MOLECULE
CHEMBL46409
   58    62     0     0     0
SMALL
USER_CHARGES

@<TRIPOS>ATOM
      1 C1          5.3296    0.4270    4.8287 C.2       1 <0>        -0.1705
      2 C2          5.4065    1.2406    3.7214 C.2       1 <0>        -0.1034
      3 C3          5.2875    0.6012    2.4961 C.2       1 <0>        -0.1524
      4 S1          5.0760   -1.0988    2.9893 S.3       1 <0>         0.2140
      5 C4          5.1484   -0.9044    4.6563 C.2       1 <0>        -0.2331
      6 C5          5.3252    1.1738    1.1481 C.2       1 <0>         0.0014
      7 C6          5.3068    0.5069   -0.0753 C.2       1 <0>        -0.1854
      8 C7          5.3539    1.3165   -1.2958 C.ar      1 <0>        -0.0667
      9 C8          5.3470    0.8726   -2.6374 C.ar      1 <0>        -0.0641
     10 C9          5.3966    1.7687   -3.6730 C.ar      1 <0>        -0.1341
     11 C10         5.4553    3.1391   -3.4376 C.ar      1 <0>         0.1363
     12 C11         5.4636    3.6043   -2.1322 C.ar      1 <0>        -0.0975
     13 C12         5.4137    2.7068   -1.0866 C.ar      1 <0>        -0.1056
     14 S2          5.3978    2.8909    0.6782 S.3       1 <0>         0.1216
     15 O1          5.5045    4.0128   -4.4780 O.3       1 <0>        -0.4888
     16 C13         5.2451   -0.9078   -0.1370 C.2       1 <0>         0.4562
     17 O2          6.2704   -1.5649   -0.0932 O.2       1 <0>        -0.4204
     18 C14         3.9378   -1.5856   -0.2546 C.ar      1 <0>        -0.1840
     19 C15         2.7710   -0.8340   -0.4155 C.ar      1 <0>        -0.0212
     20 C16         1.5542   -1.4697   -0.5246 C.ar      1 <0>        -0.1520
     21 C17         1.4859   -2.8570   -0.4750 C.ar      1 <0>         0.1472
     22 C18         2.6442   -3.6082   -0.3151 C.ar      1 <0>        -0.2149
     23 C19         3.8655   -2.9803   -0.2109 C.ar      1 <0>        -0.0159
     24 O3          0.2846   -3.4798   -0.5825 O.3       1 <0>        -0.3245
     25 C20         0.2865   -4.9076   -0.5234 C.3       1 <0>         0.0228
     26 C21        -1.1465   -5.4256   -0.6609 C.3       1 <0>        -0.0010
     27 N1         -1.6726   -5.0652   -1.9843 N.4       1 <0>        -0.3845
     28 C22        -3.0945   -5.4219   -2.0576 C.3       1 <0>        -0.0071
     29 C23        -3.6675   -4.9751   -3.4043 C.3       1 <0>        -0.1467
     30 C24        -2.9055   -5.6736   -4.5342 C.3       1 <0>        -0.1392
     31 C25        -1.4134   -5.3544   -4.4037 C.3       1 <0>        -0.1454
     32 C26        -0.9239   -5.7872   -3.0200 C.3       1 <0>        -0.0135
     33 H1          5.4171    0.8436    5.8212 H         1 <0>         0.1419
     34 H2          5.5498    2.3080    3.8012 H         1 <0>         0.1477
     35 H3          5.0692   -1.6669    5.4170 H         1 <0>         0.1909
     36 H4          5.3023   -0.1855   -2.8491 H         1 <0>         0.1274
     37 H5          5.3905    1.4050   -4.6899 H         1 <0>         0.1392
     38 H6          5.5085    4.6652   -1.9347 H         1 <0>         0.1439
     39 H7          4.6362    4.3048   -4.7877 H         1 <0>         0.3976
     40 H8          2.8233    0.2440   -0.4538 H         1 <0>         0.1413
     41 H9          0.6518   -0.8894   -0.6487 H         1 <0>         0.1405
     42 H10         2.5870   -4.6860   -0.2766 H         1 <0>         0.1355
     43 H11         4.7657   -3.5649   -0.0911 H         1 <0>         0.1440
     44 H12         0.8957   -5.3041   -1.3356 H         1 <0>         0.0894
     45 H13         0.6997   -5.2311    0.4320 H         1 <0>         0.1126
     46 H14        -1.1530   -6.5100   -0.5503 H         1 <0>         0.1502
     47 H15        -1.7706   -4.9778    0.1125 H         1 <0>         0.1434
     48 H16        -3.2034   -6.5018   -1.9573 H         1 <0>         0.1294
     49 H17        -3.6350   -4.9266   -1.2510 H         1 <0>         0.1313
     50 H18        -4.7229   -5.2424   -3.4575 H         1 <0>         0.1132
     51 H19        -3.5594   -3.8952   -3.5056 H         1 <0>         0.0880
     52 H20        -3.0554   -6.7509   -4.4633 H         1 <0>         0.0822
     53 H21        -3.2719   -5.3160   -5.4964 H         1 <0>         0.0949
     54 H22        -0.8575   -5.8929   -5.1713 H         1 <0>         0.1125
     55 H23        -1.2584   -4.2824   -4.5258 H         1 <0>         0.0879
     56 H24         0.1381   -5.5616   -2.9238 H         1 <0>         0.1273
     57 H25        -1.0791   -6.8593   -2.8991 H         1 <0>         0.1307
     58 H26        -1.5693   -4.0717   -2.1270 H         1 <0>         0.4292
@<TRIPOS>BOND
     1    1    5 2
     2    1    2 1
     3    1   33 1
     4    2    3 2
     5    2   34 1
     6    3    4 1
     7    3    6 1
     8    4    5 1
     9    5   35 1
    10    6   14 1
    11    6    7 2
    12    7    8 1
    13    7   16 1
    14    8   13 ar
    15    8    9 ar
    16    9   10 ar
    17    9   36 1
    18   10   11 ar
    19   10   37 1
    20   11   12 ar
    21   11   15 1
    22   12   13 ar
    23   12   38 1
    24   13   14 1
    25   15   39 1
    26   16   17 2
    27   16   18 1
    28   18   23 ar
    29   18   19 ar
    30   19   20 ar
    31   19   40 1
    32   20   21 ar
    33   20   41 1
    34   21   22 ar
    35   21   24 1
    36   22   23 ar
    37   22   42 1
    38   23   43 1
    39   24   25 1
    40   25   26 1
    41   25   44 1
    42   25   45 1
    43   26   27 1
    44   26   46 1
    45   26   47 1
    46   27   32 1
    47   27   28 1
    48   27   58 1
    49   28   29 1
    50   28   48 1
    51   28   49 1
    52   29   30 1
    53   29   50 1
    54   29   51 1
    55   30   31 1
    56   30   52 1
    57   30   53 1
    58   31   32 1
    59   31   54 1
    60   31   55 1
    61   32   56 1
    62   32   57 1
@<TRIPOS>MOLECULE
CHEMBL178334
   63    67     0     0     0
SMALL
USER_CHARGES

@<TRIPOS>ATOM
      1 C1          0.8679    1.8818   -1.8452 C.3       1 <0>        -0.1843
      2 C2          0.7962    0.3774   -1.5761 C.3       1 <0>         0.0225
      3 C3          1.6242    0.0414   -0.3342 C.3       1 <0>        -0.1845
      4 N1         -0.6021   -0.0140   -1.3529 N.4       1 <0>        -0.3808
      5 C4         -0.6679   -1.4560   -1.0841 C.3       1 <0>        -0.0279
      6 C5         -2.1091   -1.8448   -0.7385 C.3       1 <0>         0.0966
      7 N2         -2.9886   -1.3892   -1.8261 N.pl3     1 <0>        -0.6384
      8 C6         -2.8725    0.0078   -2.2724 C.3       1 <0>         0.0976
      9 C7         -1.3952    0.3092   -2.5456 C.3       1 <0>        -0.0273
     10 C8         -3.9038   -2.2548   -2.4160 C.ar      1 <0>         0.2334
     11 C9         -3.9216   -3.5989   -2.0540 C.ar      1 <0>        -0.2008
     12 C10        -4.8262   -4.4577   -2.6356 C.ar      1 <0>        -0.0077
     13 C11        -5.7277   -3.9791   -3.5907 C.ar      1 <0>        -0.1995
     14 C12        -5.7073   -2.6288   -3.9521 C.ar      1 <0>        -0.0104
     15 C13        -4.8039   -1.7739   -3.3631 C.ar      1 <0>        -0.2000
     16 C14        -6.6990   -4.8977   -4.2169 C.2       1 <0>         0.4627
     17 O1         -6.7868   -6.0488   -3.8279 O.2       1 <0>        -0.4356
     18 C15        -7.5561   -4.4257   -5.3046 C.2       1 <0>        -0.1612
     19 C16        -8.8969   -3.8999   -5.0359 C.ar      1 <0>        -0.0745
     20 C17        -9.5483   -3.7653   -3.7890 C.ar      1 <0>        -0.0603
     21 C18       -10.8155   -3.2502   -3.7119 C.ar      1 <0>        -0.1366
     22 C19       -11.4994   -2.8441   -4.8543 C.ar      1 <0>         0.1381
     23 C20       -10.8864   -2.9634   -6.0911 C.ar      1 <0>        -0.1013
     24 C21        -9.6111   -3.4817   -6.1744 C.ar      1 <0>        -0.1019
     25 S1         -8.5062   -3.7929   -7.5275 S.3       1 <0>         0.0940
     26 C22        -7.1219   -4.4568   -6.6233 C.2       1 <0>        -0.0538
     27 C23        -5.8274   -4.9275   -7.1489 C.ar      1 <0>        -0.0403
     28 C24        -5.2988   -6.1486   -6.7200 C.ar      1 <0>        -0.0723
     29 C25        -4.0890   -6.5844   -7.2137 C.ar      1 <0>        -0.1391
     30 C26        -3.3939   -5.8121   -8.1364 C.ar      1 <0>         0.1254
     31 C27        -3.9153   -4.5976   -8.5653 C.ar      1 <0>        -0.1474
     32 C28        -5.1276   -4.1569   -8.0821 C.ar      1 <0>        -0.0737
     33 O2         -2.2014   -6.2455   -8.6202 O.3       1 <0>        -0.4992
     34 O3        -12.7564   -2.3359   -4.7575 O.3       1 <0>        -0.4891
     35 H1          1.9054    2.1722   -2.0108 H         1 <0>         0.1072
     36 H2          0.2780    2.1212   -2.7300 H         1 <0>         0.0818
     37 H3          0.4715    2.4239   -0.9867 H         1 <0>         0.0820
     38 H4          1.1925   -0.1646   -2.4346 H         1 <0>         0.1361
     39 H5          1.5731   -1.0303   -0.1424 H         1 <0>         0.0821
     40 H6          2.6617    0.3318   -0.4998 H         1 <0>         0.1072
     41 H7          1.2279    0.5835    0.5244 H         1 <0>         0.0820
     42 H8         -0.3452   -2.0056   -1.9683 H         1 <0>         0.1334
     43 H9         -0.0148   -1.6997   -0.2461 H         1 <0>         0.1446
     44 H10        -2.1822   -2.9277   -0.6376 H         1 <0>         0.1294
     45 H11        -2.4036   -1.3664    0.1956 H         1 <0>         0.0913
     46 H12        -3.4503    0.1497   -3.1857 H         1 <0>         0.1285
     47 H13        -3.2441    0.6733   -1.4932 H         1 <0>         0.0908
     48 H14        -1.2781    1.3662   -2.7846 H         1 <0>         0.1443
     49 H15        -1.0506   -0.2939   -3.3856 H         1 <0>         0.1334
     50 H16        -3.2247   -3.9682   -1.3163 H         1 <0>         0.1308
     51 H17        -4.8393   -5.5004   -2.3546 H         1 <0>         0.1398
     52 H18        -6.4023   -2.2561   -4.6900 H         1 <0>         0.1333
     53 H19        -4.7903   -0.7298   -3.6388 H         1 <0>         0.1301
     54 H20        -9.0413   -4.0724   -2.8862 H         1 <0>         0.1279
     55 H21       -11.2926   -3.1580   -2.7474 H         1 <0>         0.1393
     56 H22       -11.4052   -2.6527   -6.9859 H         1 <0>         0.1428
     57 H23        -5.8380   -6.7491   -6.0023 H         1 <0>         0.1347
     58 H24        -3.6799   -7.5276   -6.8829 H         1 <0>         0.1372
     59 H25        -3.3713   -4.0003   -9.2821 H         1 <0>         0.1365
     60 H26        -5.5345   -3.2153   -8.4199 H         1 <0>         0.1338
     61 H27        -2.2667   -6.7200   -9.4603 H         1 <0>         0.3986
     62 H28       -12.7849   -1.3763   -4.6413 H         1 <0>         0.3978
     63 H29        -0.9688    0.4906   -0.5598 H         1 <0>         0.4205
@<TRIPOS>BOND
     1    1    2 1
     2    1   35 1
     3    1   36 1
     4    1   37 1
     5    2    3 1
     6    2    4 1
     7    2   38 1
     8    3   39 1
     9    3   40 1
    10    3   41 1
    11    4    9 1
    12    4    5 1
    13    4   63 1
    14    5    6 1
    15    5   42 1
    16    5   43 1
    17    6    7 1
    18    6   44 1
    19    6   45 1
    20    7    8 1
    21    7   10 1
    22    8    9 1
    23    8   46 1
    24    8   47 1
    25    9   48 1
    26    9   49 1
    27   10   15 ar
    28   10   11 ar
    29   11   12 ar
    30   11   50 1
    31   12   13 ar
    32   12   51 1
    33   13   14 ar
    34   13   16 1
    35   14   15 ar
    36   14   52 1
    37   15   53 1
    38   16   17 2
    39   16   18 1
    40   18   26 2
    41   18   19 1
    42   19   24 ar
    43   19   20 ar
    44   20   21 ar
    45   20   54 1
    46   21   22 ar
    47   21   55 1
    48   22   23 ar
    49   22   34 1
    50   23   24 ar
    51   23   56 1
    52   24   25 1
    53   25   26 1
    54   26   27 1
    55   27   32 ar
    56   27   28 ar
    57   28   29 ar
    58   28   57 1
    59   29   30 ar
    60   29   58 1
    61   30   31 ar
    62   30   33 1
    63   31   32 ar
    64   31   59 1
    65   32   60 1
    66   33   61 1
    67   34   62 1
@<TRIPOS>MOLECULE
CHEMBL178334__1
   62    66     0     0     0
SMALL
USER_CHARGES

@<TRIPOS>ATOM
      1 C1          1.4239    0.4537    0.5463 C.3       1 <0>        -0.1468
      2 C2          1.2759   -1.0654    0.6529 C.3       1 <0>         0.0762
      3 C3          1.7494   -1.5284    2.0321 C.3       1 <0>        -0.1880
      4 N1         -0.1344   -1.4340    0.4701 N.3       1 <0>        -0.5300
      5 C4         -0.9775   -0.8187    1.5037 C.3       1 <0>         0.0325
      6 C5         -2.4520   -1.0762    1.1754 C.3       1 <0>         0.1201
      7 N2         -2.6449   -2.5232    0.9956 N.pl3     1 <0>        -0.6185
      8 C6         -1.7450   -3.2362    0.0763 C.3       1 <0>         0.1214
      9 C7         -0.2984   -2.8936    0.4479 C.3       1 <0>         0.0376
     10 C8         -3.6513   -3.1994    1.6772 C.ar      1 <0>         0.2597
     11 C9         -4.4213   -2.5286    2.6234 C.ar      1 <0>        -0.2170
     12 C10        -5.4180   -3.1948    3.2991 C.ar      1 <0>        -0.0031
     13 C11        -5.6569   -4.5465    3.0346 C.ar      1 <0>        -0.2300
     14 C12        -4.8819   -5.2173    2.0840 C.ar      1 <0>        -0.0076
     15 C13        -3.8902   -4.5442    1.4078 C.ar      1 <0>        -0.2160
     16 C14        -6.7250   -5.2643    3.7581 C.2       1 <0>         0.4653
     17 O1         -7.4670   -4.6561    4.5088 O.2       1 <0>        -0.4497
     18 C15        -6.8923   -6.7060    3.5735 C.2       1 <0>        -0.1526
     19 C16        -7.8203   -7.2366    2.5717 C.ar      1 <0>        -0.0717
     20 C17        -8.6489   -6.5170    1.6812 C.ar      1 <0>        -0.0569
     21 C18        -9.4667   -7.1729    0.7992 C.ar      1 <0>        -0.1383
     22 C19        -9.5074   -8.5635    0.7514 C.ar      1 <0>         0.1340
     23 C20        -8.7060   -9.2964    1.6118 C.ar      1 <0>        -0.1024
     24 C21        -7.8813   -8.6410    2.5020 C.ar      1 <0>        -0.1018
     25 S1         -6.7338   -9.1945    3.7372 S.3       1 <0>         0.0833
     26 C22        -6.1722   -7.6141    4.3385 C.2       1 <0>        -0.0552
     27 C23        -5.1822   -7.3372    5.3953 C.ar      1 <0>        -0.0370
     28 C24        -5.4613   -6.3923    6.3872 C.ar      1 <0>        -0.0714
     29 C25        -4.5333   -6.1368    7.3725 C.ar      1 <0>        -0.1390
     30 C26        -3.3212   -6.8162    7.3814 C.ar      1 <0>         0.1233
     31 C27        -3.0393   -7.7558    6.3973 C.ar      1 <0>        -0.1467
     32 C28        -3.9640   -8.0227    5.4119 C.ar      1 <0>        -0.0736
     33 O2         -2.4092   -6.5607    8.3545 O.3       1 <0>        -0.4976
     34 O3        -10.3257   -9.1963   -0.1305 O.3       1 <0>        -0.4909
     35 H1          2.4703    0.7272    0.6819 H         1 <0>         0.0614
     36 H2          1.0866    0.7836   -0.4363 H         1 <0>         0.0646
     37 H3          0.8203    0.9326    1.3173 H         1 <0>         0.0561
     38 H4          1.8794   -1.5443   -0.1182 H         1 <0>         0.0847
     39 H5          2.7957   -1.2549    2.1677 H         1 <0>         0.0636
     40 H6          1.1458   -1.0496    2.8031 H         1 <0>         0.0576
     41 H7          1.6439   -2.6106    2.1080 H         1 <0>         0.0553
     42 H8         -0.7395   -1.2543    2.4741 H         1 <0>         0.0429
     43 H9         -0.7933    0.2553    1.5316 H         1 <0>         0.0914
     44 H10        -3.0769   -0.7226    1.9955 H         1 <0>         0.0891
     45 H11        -2.7191   -0.5542    0.2565 H         1 <0>         0.0745
     46 H12        -1.9024   -4.3107    0.1698 H         1 <0>         0.0885
     47 H13        -1.9441   -2.9218   -0.9482 H         1 <0>         0.0742
     48 H14         0.3785   -3.3245   -0.2900 H         1 <0>         0.0869
     49 H15        -0.0698   -3.3003    1.4330 H         1 <0>         0.0424
     50 H16        -4.2360   -1.4844    2.8275 H         1 <0>         0.1294
     51 H17        -6.0148   -2.6739    4.0332 H         1 <0>         0.1322
     52 H18        -5.0638   -6.2617    1.8778 H         1 <0>         0.1247
     53 H19        -3.2938   -5.0608    0.6703 H         1 <0>         0.1283
     54 H20        -8.6376   -5.4371    1.6965 H         1 <0>         0.1298
     55 H21       -10.0912   -6.6008    0.1291 H         1 <0>         0.1382
     56 H22        -8.7275  -10.3759    1.5861 H         1 <0>         0.1407
     57 H23        -6.4028   -5.8633    6.3806 H         1 <0>         0.1350
     58 H24        -4.7480   -5.4070    8.1392 H         1 <0>         0.1362
     59 H25        -2.0956   -8.2810    6.4078 H         1 <0>         0.1359
     60 H26        -3.7462   -8.7570    4.6504 H         1 <0>         0.1334
     61 H27        -2.4552   -7.1677    9.1058 H         1 <0>         0.3949
     62 H28        -9.9156   -9.3777   -0.9873 H         1 <0>         0.3962
@<TRIPOS>BOND
     1    1    2 1
     2    1   35 1
     3    1   36 1
     4    1   37 1
     5    2    3 1
     6    2    4 1
     7    2   38 1
     8    3   39 1
     9    3   40 1
    10    3   41 1
    11    4    9 1
    12    4    5 1
    13    5    6 1
    14    5   42 1
    15    5   43 1
    16    6    7 1
    17    6   44 1
    18    6   45 1
    19    7    8 1
    20    7   10 1
    21    8    9 1
    22    8   46 1
    23    8   47 1
    24    9   48 1
    25    9   49 1
    26   10   15 ar
    27   10   11 ar
    28   11   12 ar
    29   11   50 1
    30   12   13 ar
    31   12   51 1
    32   13   14 ar
    33   13   16 1
    34   14   15 ar
    35   14   52 1
    36   15   53 1
    37   16   17 2
    38   16   18 1
    39   18   26 2
    40   18   19 1
    41   19   24 ar
    42   19   20 ar
    43   20   21 ar
    44   20   54 1
    45   21   22 ar
    46   21   55 1
    47   22   23 ar
    48   22   34 1
    49   23   24 ar
    50   23   56 1
    51   24   25 1
    52   25   26 1
    53   26   27 1
    54   27   32 ar
    55   27   28 ar
    56   28   29 ar
    57   28   57 1
    58   29   30 ar
    59   29   58 1
    60   30   31 ar
    61   30   33 1
    62   31   32 ar
    63   31   59 1
    64   32   60 1
    65   33   61 1
    66   34   62 1
@<TRIPOS>MOLECULE
CHEMBL77620
   35    37     0     0     0
SMALL
USER_CHARGES

@<TRIPOS>ATOM
      1 C1         -0.0184    1.5028    0.0103 C.3       1 <0>        -0.1123
      2 C2          0.0021   -0.0041    0.0020 C.ar      1 <0>         0.0029
      3 C3          0.0058   -0.6895   -1.1953 C.ar      1 <0>        -0.1697
      4 C4          0.0247   -2.0784   -1.2078 C.ar      1 <0>         0.1563
      5 C5          0.0388   -2.7896   -0.0149 C.ar      1 <0>        -0.1711
      6 C6          0.0349   -2.1129    1.1886 C.ar      1 <0>         0.1145
      7 C7          0.0231   -0.7099    1.2043 C.ar      1 <0>        -0.0068
      8 N1          0.0303   -0.0517    2.4026 N.2       1 <0>        -0.4324
      9 C8         -0.2592   -0.6928    3.5000 C.2       1 <0>         0.1643
     10 C9         -0.6198   -2.1550    3.4608 C.3       1 <0>         0.0860
     11 O1          0.0449   -2.7872    2.3692 O.3       1 <0>        -0.2922
     12 C10        -2.1316   -2.3022    3.2769 C.3       1 <0>        -0.1790
     13 C11        -0.2331    0.0177    4.7881 C.ar      1 <0>        -0.0610
     14 C12        -0.5368   -0.6637    5.9716 C.ar      1 <0>        -0.0653
     15 C13        -0.5112    0.0054    7.1750 C.ar      1 <0>        -0.1394
     16 C14        -0.1843    1.3553    7.2155 C.ar      1 <0>         0.1546
     17 C15         0.1180    2.0375    6.0424 C.ar      1 <0>        -0.1273
     18 C16         0.1011    1.3752    4.8340 C.ar      1 <0>        -0.0282
     19 Br1         0.5612    3.8747    6.1060 Br        1 <0>        -0.0279
     20 O2         -0.1604    2.0106    8.4047 O.3       1 <0>        -0.4845
     21 O3          0.0289   -2.7441   -2.3923 O.3       1 <0>        -0.4931
     22 H1          1.0042    1.8801    0.0026 H         1 <0>         0.0794
     23 H2         -0.5455    1.8639   -0.8728 H         1 <0>         0.0705
     24 H3         -0.5286    1.8543    0.9071 H         1 <0>         0.0784
     25 H4         -0.0063   -0.1437   -2.1272 H         1 <0>         0.1406
     26 H5          0.0524   -3.8694   -0.0287 H         1 <0>         0.1425
     27 H6         -0.3205   -2.6278    4.3961 H         1 <0>         0.1387
     28 H7         -2.4317   -1.8286    2.3421 H         1 <0>         0.0624
     29 H8         -2.3928   -3.3600    3.2485 H         1 <0>         0.0813
     30 H9         -2.6472   -1.8228    4.1090 H         1 <0>         0.0827
     31 H10        -0.7914   -1.7128    5.9415 H         1 <0>         0.1406
     32 H11        -0.7459   -0.5200    8.0890 H         1 <0>         0.1465
     33 H12         0.3407    1.9044    3.9235 H         1 <0>         0.1506
     34 H13         0.6991    1.9909    8.8474 H         1 <0>         0.3992
     35 H14         0.9134   -2.9248   -2.7388 H         1 <0>         0.3983
@<TRIPOS>BOND
     1    1    2 1
     2    1   22 1
     3    1   23 1
     4    1   24 1
     5    2    7 ar
     6    2    3 ar
     7    3    4 ar
     8    3   25 1
     9    4    5 ar
    10    4   21 1
    11    5    6 ar
    12    5   26 1
    13    6   11 1
    14    6    7 ar
    15    7    8 1
    16    8    9 2
    17    9   10 1
    18    9   13 1
    19   10   11 1
    20   10   12 1
    21   10   27 1
    22   12   28 1
    23   12   29 1
    24   12   30 1
    25   13   18 ar
    26   13   14 ar
    27   14   15 ar
    28   14   31 1
    29   15   16 ar
    30   15   32 1
    31   16   17 ar
    32   16   20 1
    33   17   18 ar
    34   17   19 1
    35   18   33 1
    36   20   34 1
    37   21   35 1
@<TRIPOS>MOLECULE
CHEMBL77620__1
   35    37     0     0     0
SMALL
USER_CHARGES

@<TRIPOS>ATOM
      1 C1         -0.0184    1.5028    0.0103 C.3       1 <0>        -0.1136
      2 C2          0.0021   -0.0041    0.0020 C.ar      1 <0>         0.0034
      3 C3          0.0058   -0.6895   -1.1953 C.ar      1 <0>        -0.1707
      4 C4          0.0241   -2.0784   -1.2078 C.ar      1 <0>         0.1559
      5 C5          0.0409   -2.7896   -0.0149 C.ar      1 <0>        -0.1700
      6 C6          0.0385   -2.1129    1.1886 C.ar      1 <0>         0.1141
      7 C7          0.0231   -0.7099    1.2043 C.ar      1 <0>        -0.0073
      8 N1          0.0205   -0.0519    2.4027 N.2       1 <0>        -0.4311
      9 C8          0.3482   -0.6844    3.4942 C.2       1 <0>         0.1633
     10 C9          0.7491   -2.1358    3.4477 C.3       1 <0>         0.0847
     11 O1          0.0584   -2.7870    2.3692 O.3       1 <0>        -0.2923
     12 C10         2.2606   -2.2404    3.2346 C.3       1 <0>        -0.1762
     13 C11         0.3270    0.0254    4.7828 C.ar      1 <0>        -0.0606
     14 C12         0.6828   -0.6440    5.9586 C.ar      1 <0>        -0.0658
     15 C13         0.6614    0.0244    7.1625 C.ar      1 <0>        -0.1393
     16 C14         0.2872    1.3618    7.2110 C.ar      1 <0>         0.1543
     17 C15        -0.0677    2.0317    6.0457 C.ar      1 <0>        -0.1271
     18 C16        -0.0435    1.3732    4.8353 C.ar      1 <0>        -0.0284
     19 Br1        -0.5763    3.8515    6.1204 Br        1 <0>        -0.0279
     20 O2          0.2678    2.0164    8.4007 O.3       1 <0>        -0.4844
     21 O3          0.0260   -2.7442   -2.3923 O.3       1 <0>        -0.4920
     22 H1          1.0042    1.8801    0.0026 H         1 <0>         0.0761
     23 H2         -0.5455    1.8639   -0.8728 H         1 <0>         0.0716
     24 H3         -0.5286    1.8543    0.9071 H         1 <0>         0.0821
     25 H4         -0.0060   -0.1437   -2.1272 H         1 <0>         0.1405
     26 H5          0.0554   -3.8694   -0.0287 H         1 <0>         0.1426
     27 H6          0.4814   -2.6167    4.3885 H         1 <0>         0.1379
     28 H7          2.7785   -1.7464    4.0567 H         1 <0>         0.0835
     29 H8          2.5510   -3.2905    3.2009 H         1 <0>         0.0810
     30 H9          2.5291   -1.7588    2.2943 H         1 <0>         0.0621
     31 H10         0.9735   -1.6835    5.9223 H         1 <0>         0.1405
     32 H11         0.9357   -0.4918    8.0706 H         1 <0>         0.1465
     33 H12        -0.3146    1.8954    3.9297 H         1 <0>         0.1504
     34 H13         1.1041    2.4458    8.6270 H         1 <0>         0.3990
     35 H14         0.9099   -2.9252   -2.7403 H         1 <0>         0.3975
@<TRIPOS>BOND
     1    1    2 1
     2    1   22 1
     3    1   23 1
     4    1   24 1
     5    2    7 ar
     6    2    3 ar
     7    3    4 ar
     8    3   25 1
     9    4    5 ar
    10    4   21 1
    11    5    6 ar
    12    5   26 1
    13    6   11 1
    14    6    7 ar
    15    7    8 1
    16    8    9 2
    17    9   10 1
    18    9   13 1
    19   10   11 1
    20   10   12 1
    21   10   27 1
    22   12   28 1
    23   12   29 1
    24   12   30 1
    25   13   18 ar
    26   13   14 ar
    27   14   15 ar
    28   14   31 1
    29   15   16 ar
    30   15   32 1
    31   16   17 ar
    32   16   20 1
    33   17   18 ar
    34   17   19 1
    35   18   33 1
    36   20   34 1
    37   21   35 1
@<TRIPOS>MOLECULE
CHEMBL73989
   29    32     0     0     0
SMALL
USER_CHARGES

@<TRIPOS>ATOM
      1 C1         -0.0168    1.3844    0.0097 C.ar      1 <0>        -0.1449
      2 C2          1.1647    2.0930    0.0022 C.ar      1 <0>        -0.0838
      3 C3          2.3871    1.4154   -0.0131 C.ar      1 <0>        -0.0149
      4 C4          2.3985    0.0215   -0.0207 C.ar      1 <0>        -0.0904
      5 C5          1.2144   -0.6823   -0.0138 C.ar      1 <0>        -0.1220
      6 C6          0.0021   -0.0041    0.0020 C.ar      1 <0>         0.0786
      7 O1         -1.1649   -0.6991    0.0094 O.3       1 <0>        -0.4993
      8 C7          3.8390   -0.4275   -0.0369 C.3       1 <0>         0.0218
      9 C8          4.6743    0.8327   -0.0381 C.2       1 <0>        -0.1897
     10 C9          3.7786    1.9190   -0.0236 C.2       1 <0>         0.0983
     11 N1          4.2671    3.1548   -0.0216 N.2       1 <0>        -0.6726
     12 C10         5.6005    3.2773   -0.0335 C.ar      1 <0>         0.1751
     13 C11         6.2153    4.5412   -0.0319 C.ar      1 <0>        -0.2289
     14 C12         7.5717    4.6333   -0.0438 C.ar      1 <0>        -0.1089
     15 C13         8.3658    3.4806   -0.0577 C.ar      1 <0>        -0.0083
     16 C14         7.7937    2.2289   -0.0597 C.ar      1 <0>        -0.1981
     17 C15         6.3959    2.1017   -0.0476 C.ar      1 <0>         0.0652
     18 O2          5.8736    1.0006   -0.0488 O.3       1 <0>        -0.1731
     19 O3          9.7185    3.5990   -0.0699 O.3       1 <0>        -0.5004
     20 H1         -0.9600    1.9102    0.0260 H         1 <0>         0.1242
     21 H2          1.1463    3.1728    0.0078 H         1 <0>         0.1265
     22 H3          1.2285   -1.7622   -0.0200 H         1 <0>         0.1242
     23 H4         -1.5112   -0.8956   -0.8718 H         1 <0>         0.3817
     24 H5          4.0567   -1.0203    0.8515 H         1 <0>         0.0860
     25 H6          4.0395   -1.0108   -0.9356 H         1 <0>         0.0856
     26 H7          5.6119    5.4368   -0.0216 H         1 <0>         0.1052
     27 H8          8.0414    5.6058   -0.0429 H         1 <0>         0.0996
     28 H9          8.4181    1.3477   -0.0709 H         1 <0>         0.1074
     29 H10        10.1187    3.6284    0.8099 H         1 <0>         0.3556
@<TRIPOS>BOND
     1    1    6 ar
     2    1    2 ar
     3    1   20 1
     4    2    3 ar
     5    2   21 1
     6    3   10 1
     7    3    4 ar
     8    4    5 ar
     9    4    8 1
    10    5    6 ar
    11    5   22 1
    12    6    7 1
    13    7   23 1
    14    8    9 1
    15    8   24 1
    16    8   25 1
    17    9   18 1
    18    9   10 1
    19   10   11 2
    20   11   12 1
    21   12   17 ar
    22   12   13 ar
    23   13   14 ar
    24   13   26 1
    25   14   15 ar
    26   14   27 1
    27   15   16 ar
    28   15   19 1
    29   16   17 ar
    30   16   28 1
    31   17   18 1
    32   19   29 1
@<TRIPOS>MOLECULE
CHEMBL73989__1
   30    33     0     0     0
SMALL
USER_CHARGES

@<TRIPOS>ATOM
      1 C1         -0.0167    1.3822    0.0096 C.ar      1 <0>        -0.1556
      2 C2          1.1496    2.1258    0.0025 C.ar      1 <0>        -0.0361
      3 C3          2.3601    1.4164   -0.0043 C.ar      1 <0>        -0.0884
      4 C4          2.3713    0.0055    0.0223 C.ar      1 <0>        -0.0488
      5 C5          1.1998   -0.7220    0.0066 C.ar      1 <0>        -0.1303
      6 C6          0.0021   -0.0041    0.0020 C.ar      1 <0>         0.1354
      7 O1         -1.1748   -0.6813   -0.0101 O.3       1 <0>        -0.4985
      8 C7          3.7910   -0.4791    0.1244 C.3       1 <0>        -0.0745
      9 C8          4.6133    0.7815    0.4541 C.3       1 <0>         0.0733
     10 C9          3.7277    1.9114   -0.0633 C.2       1 <0>         0.1660
     11 N1          4.1986    3.0577   -0.4588 N.2       1 <0>        -0.4226
     12 C10         5.5629    3.1846   -0.5473 C.ar      1 <0>        -0.0029
     13 C11         6.1387    4.4435   -0.7210 C.ar      1 <0>        -0.0354
     14 C12         7.5099    4.5652   -0.8034 C.ar      1 <0>        -0.1626
     15 C13         8.3184    3.4388   -0.7138 C.ar      1 <0>         0.1469
     16 C14         7.7536    2.1827   -0.5437 C.ar      1 <0>        -0.1592
     17 C15         6.3794    2.0485   -0.4622 C.ar      1 <0>         0.1053
     18 O2          5.8256    0.8120   -0.3045 O.3       1 <0>        -0.2944
     19 O3          9.6687    3.5677   -0.7938 O.3       1 <0>        -0.4923
     20 H1         -0.9671    1.8949    0.0260 H         1 <0>         0.1362
     21 H2          1.1293    3.2056    0.0018 H         1 <0>         0.1441
     22 H3          1.2084   -1.8020   -0.0016 H         1 <0>         0.1457
     23 H4         -1.5094   -0.8725   -0.8970 H         1 <0>         0.3969
     24 H5          3.8848   -1.2135    0.9243 H         1 <0>         0.1057
     25 H6          4.1153   -0.9065   -0.8244 H         1 <0>         0.1070
     26 H7          4.8098    0.8628    1.5232 H         1 <0>         0.1121
     27 H8          5.5122    5.3204   -0.7911 H         1 <0>         0.1440
     28 H9          7.9567    5.5392   -0.9383 H         1 <0>         0.1419
     29 H10         8.3867    1.3104   -0.4749 H         1 <0>         0.1439
     30 H11        10.1019    3.7051    0.0598 H         1 <0>         0.3974
@<TRIPOS>BOND
     1    1    6 ar
     2    1    2 ar
     3    1   20 1
     4    2    3 ar
     5    2   21 1
     6    3   10 1
     7    3    4 ar
     8    4    5 ar
     9    4    8 1
    10    5    6 ar
    11    5   22 1
    12    6    7 1
    13    7   23 1
    14    8    9 1
    15    8   24 1
    16    8   25 1
    17    9   18 1
    18    9   10 1
    19    9   26 1
    20   10   11 2
    21   11   12 1
    22   12   17 ar
    23   12   13 ar
    24   13   14 ar
    25   13   27 1
    26   14   15 ar
    27   14   28 1
    28   15   16 ar
    29   15   19 1
    30   16   17 ar
    31   16   29 1
    32   17   18 1
    33   19   30 1
@<TRIPOS>MOLECULE
CHEMBL73989__2
   29    32     0     0     0
SMALL
USER_CHARGES

@<TRIPOS>ATOM
      1 C1         -0.0168    1.3844    0.0097 C.ar      1 <0>        -0.1449
      2 C2          1.1647    2.0930    0.0022 C.ar      1 <0>        -0.0838
      3 C3          2.3871    1.4154   -0.0131 C.ar      1 <0>        -0.0149
      4 C4          2.3985    0.0215   -0.0207 C.ar      1 <0>        -0.0904
      5 C5          1.2144   -0.6823   -0.0138 C.ar      1 <0>        -0.1220
      6 C6          0.0021   -0.0041    0.0020 C.ar      1 <0>         0.0786
      7 O1         -1.1649   -0.6991    0.0094 O.3       1 <0>        -0.4993
      8 C7          3.8390   -0.4275   -0.0369 C.3       1 <0>         0.0218
      9 C8          4.6743    0.8327   -0.0381 C.2       1 <0>        -0.1897
     10 C9          3.7786    1.9190   -0.0236 C.2       1 <0>         0.0983
     11 N1          4.2671    3.1548   -0.0216 N.2       1 <0>        -0.6726
     12 C10         5.6005    3.2773   -0.0335 C.ar      1 <0>         0.1751
     13 C11         6.2153    4.5412   -0.0319 C.ar      1 <0>        -0.2289
     14 C12         7.5717    4.6333   -0.0438 C.ar      1 <0>        -0.1089
     15 C13         8.3658    3.4806   -0.0577 C.ar      1 <0>        -0.0083
     16 C14         7.7937    2.2289   -0.0597 C.ar      1 <0>        -0.1981
     17 C15         6.3959    2.1017   -0.0476 C.ar      1 <0>         0.0652
     18 O2          5.8736    1.0006   -0.0488 O.3       1 <0>        -0.1731
     19 O3          9.7185    3.5990   -0.0699 O.3       1 <0>        -0.5004
     20 H1         -0.9600    1.9102    0.0260 H         1 <0>         0.1242
     21 H2          1.1463    3.1728    0.0078 H         1 <0>         0.1265
     22 H3          1.2285   -1.7622   -0.0200 H         1 <0>         0.1242
     23 H4         -1.5112   -0.8956   -0.8718 H         1 <0>         0.3817
     24 H5          4.0567   -1.0203    0.8515 H         1 <0>         0.0860
     25 H6          4.0395   -1.0108   -0.9356 H         1 <0>         0.0856
     26 H7          5.6119    5.4368   -0.0216 H         1 <0>         0.1052
     27 H8          8.0414    5.6058   -0.0429 H         1 <0>         0.0996
     28 H9          8.4181    1.3477   -0.0709 H         1 <0>         0.1074
     29 H10        10.1187    3.6284    0.8099 H         1 <0>         0.3556
@<TRIPOS>BOND
     1    1    6 ar
     2    1    2 ar
     3    1   20 1
     4    2    3 ar
     5    2   21 1
     6    3   10 1
     7    3    4 ar
     8    4    5 ar
     9    4    8 1
    10    5    6 ar
    11    5   22 1
    12    6    7 1
    13    7   23 1
    14    8    9 1
    15    8   24 1
    16    8   25 1
    17    9   18 1
    18    9   10 1
    19   10   11 2
    20   11   12 1
    21   12   17 ar
    22   12   13 ar
    23   13   14 ar
    24   13   26 1
    25   14   15 ar
    26   14   27 1
    27   15   16 ar
    28   15   19 1
    29   16   17 ar
    30   16   28 1
    31   17   18 1
    32   19   29 1
@<TRIPOS>MOLECULE
CHEMBL73989__3
   30    33     0     0     0
SMALL
USER_CHARGES

@<TRIPOS>ATOM
      1 C1         -0.0167    1.3822    0.0096 C.ar      1 <0>        -0.1562
      2 C2          1.1482    2.1269    0.0025 C.ar      1 <0>        -0.0353
      3 C3          2.3618    1.4225   -0.0209 C.ar      1 <0>        -0.0882
      4 C4          2.3711    0.0103   -0.0052 C.ar      1 <0>        -0.0490
      5 C5          1.2018   -0.7190   -0.0035 C.ar      1 <0>        -0.1300
      6 C6          0.0021   -0.0041    0.0020 C.ar      1 <0>         0.1364
      7 O1         -1.1739   -0.6828   -0.0002 O.3       1 <0>        -0.4980
      8 C7          3.7960   -0.4717    0.0394 C.3       1 <0>        -0.0732
      9 C8          4.6222    0.7469   -0.4130 C.3       1 <0>         0.0725
     10 C9          3.7265    1.9243   -0.0394 C.2       1 <0>         0.1670
     11 N1          4.1948    3.1150    0.2023 N.2       1 <0>        -0.4251
     12 C10         5.5581    3.2535    0.2857 C.ar      1 <0>        -0.0003
     13 C11         6.1332    4.5247    0.2984 C.ar      1 <0>        -0.0366
     14 C12         7.5031    4.6575    0.3816 C.ar      1 <0>        -0.1610
     15 C13         8.3121    3.5302    0.4523 C.ar      1 <0>         0.1464
     16 C14         7.7487    2.2621    0.4408 C.ar      1 <0>        -0.1595
     17 C15         6.3757    2.1171    0.3596 C.ar      1 <0>         0.1033
     18 O2          5.8229    0.8694    0.3541 O.3       1 <0>        -0.2937
     19 O3          9.6613    3.6701    0.5325 O.3       1 <0>        -0.4933
     20 H1         -0.9674    1.8945    0.0261 H         1 <0>         0.1361
     21 H2          1.1252    3.2066    0.0141 H         1 <0>         0.1441
     22 H3          1.2127   -1.7989   -0.0059 H         1 <0>         0.1459
     23 H4         -1.5157   -0.8746   -0.8842 H         1 <0>         0.3969
     24 H5          4.0688   -0.7620    1.0540 H         1 <0>         0.1084
     25 H6          3.9382   -1.3054   -0.6481 H         1 <0>         0.1039
     26 H7          4.8350    0.7103   -1.4814 H         1 <0>         0.1111
     27 H8          5.5067    5.4026    0.2428 H         1 <0>         0.1438
     28 H9          7.9487    5.6412    0.3915 H         1 <0>         0.1418
     29 H10         8.3819    1.3889    0.4960 H         1 <0>         0.1437
     30 H11         9.9977    3.7270    1.4373 H         1 <0>         0.3980
@<TRIPOS>BOND
     1    1    6 ar
     2    1    2 ar
     3    1   20 1
     4    2    3 ar
     5    2   21 1
     6    3   10 1
     7    3    4 ar
     8    4    5 ar
     9    4    8 1
    10    5    6 ar
    11    5   22 1
    12    6    7 1
    13    7   23 1
    14    8    9 1
    15    8   24 1
    16    8   25 1
    17    9   18 1
    18    9   10 1
    19    9   26 1
    20   10   11 2
    21   11   12 1
    22   12   17 ar
    23   12   13 ar
    24   13   14 ar
    25   13   27 1
    26   14   15 ar
    27   14   28 1
    28   15   16 ar
    29   15   19 1
    30   16   17 ar
    31   16   29 1
    32   17   18 1
    33   19   30 1
@<TRIPOS>MOLECULE
CHEMBL188051
   32    35     0     0     0
SMALL
USER_CHARGES

@<TRIPOS>ATOM
      1 C1         -0.0051    1.3845    0.1665 C.ar      1 <0>        -0.1234
      2 C2          1.1405    2.1057    0.0077 C.ar      1 <0>        -0.0709
      3 C3          2.3678    1.4474   -0.1691 C.ar      1 <0>        -0.0768
      4 C4          2.4064    0.0322   -0.1806 C.ar      1 <0>        -0.0098
      5 C5          3.6320   -0.6251   -0.3581 C.ar      1 <0>        -0.1188
      6 C6          4.7752    0.0986   -0.5180 C.ar      1 <0>        -0.0884
      7 C7          4.7504    1.4902   -0.5081 C.ar      1 <0>        -0.1411
      8 C8          3.5667    2.1717   -0.3365 C.ar      1 <0>         0.1220
      9 O1          3.5533    3.5295   -0.3283 O.3       1 <0>        -0.4905
     10 C9          1.2025   -0.6941   -0.0126 C.ar      1 <0>        -0.0391
     11 C10         0.0137   -0.0049    0.1579 C.ar      1 <0>        -0.0655
     12 C11         1.2144   -2.1738   -0.0210 C.2       1 <0>         0.1826
     13 C12         0.3101   -3.0507   -0.7830 C.ar      1 <0>        -0.1972
     14 C13        -0.7494   -2.8119   -1.6592 C.ar      1 <0>        -0.0197
     15 C14        -1.4151   -3.8619   -2.2242 C.ar      1 <0>        -0.1704
     16 C15        -1.0437   -5.1720   -1.9314 C.ar      1 <0>         0.1725
     17 C16         0.0044   -5.4265   -1.0649 C.ar      1 <0>        -0.1565
     18 C17         0.6905   -4.3683   -0.4834 C.ar      1 <0>         0.1052
     19 O2          1.7264   -4.3012    0.3778 O.3       1 <0>        -0.0848
     20 N1          2.0339   -2.9474    0.6426 N.2       1 <0>        -0.2738
     21 O3         -1.7154   -6.2067   -2.5000 O.3       1 <0>        -0.4903
     22 H1         -0.9429    1.9018    0.3060 H         1 <0>         0.1362
     23 H2          1.1040    3.1850    0.0174 H         1 <0>         0.1380
     24 H3          3.6699   -1.7044   -0.3677 H         1 <0>         0.1312
     25 H4          5.7152   -0.4154   -0.6542 H         1 <0>         0.1322
     26 H5          5.6702    2.0415   -0.6361 H         1 <0>         0.1346
     27 H6          3.6739    3.9188    0.5486 H         1 <0>         0.3940
     28 H7         -0.9081   -0.5527    0.2862 H         1 <0>         0.1336
     29 H8         -1.0427   -1.7984   -1.8898 H         1 <0>         0.1406
     30 H9         -2.2349   -3.6753   -2.9021 H         1 <0>         0.1444
     31 H10         0.2877   -6.4444   -0.8412 H         1 <0>         0.1480
     32 H11        -1.3461   -6.4985   -3.3447 H         1 <0>         0.4018
@<TRIPOS>BOND
     1    1   11 ar
     2    1    2 ar
     3    1   22 1
     4    2    3 ar
     5    2   23 1
     6    3    8 ar
     7    3    4 ar
     8    4    5 ar
     9    4   10 ar
    10    5    6 ar
    11    5   24 1
    12    6    7 ar
    13    6   25 1
    14    7    8 ar
    15    7   26 1
    16    8    9 1
    17    9   27 1
    18   10   11 ar
    19   10   12 1
    20   11   28 1
    21   12   20 2
    22   12   13 1
    23   13   18 ar
    24   13   14 ar
    25   14   15 ar
    26   14   29 1
    27   15   16 ar
    28   15   30 1
    29   16   17 ar
    30   16   21 1
    31   17   18 ar
    32   17   31 1
    33   18   19 1
    34   19   20 1
    35   21   32 1
@<TRIPOS>MOLECULE
CHEMBL209429
   46    49     0     0     0
SMALL
USER_CHARGES

@<TRIPOS>ATOM
      1 C1         -0.0187    1.5258    0.0104 C.3       1 <0>        -0.1539
      2 C2          0.0021   -0.0041    0.0020 C.3       1 <0>        -0.1259
      3 C3          0.7182   -0.4975   -1.2568 C.3       1 <0>        -0.1216
      4 C4          0.7390   -2.0273   -1.2652 C.3       1 <0>        -0.1014
      5 C5          1.4551   -2.5207   -2.5240 C.3       1 <0>        -0.0366
      6 C6          0.7528   -2.0332   -3.7924 C.3       1 <0>        -0.1080
      7 C7         -0.6623   -2.6184   -3.8288 C.3       1 <0>        -0.1625
      8 C8         -0.6128   -4.1228   -3.7900 C.2       1 <0>         0.3993
      9 O1         -1.5086   -4.7695   -4.2928 O.2       1 <0>        -0.4478
     10 C9          0.5134   -4.8117   -3.1479 C.2       1 <0>        -0.1224
     11 C10         1.5028   -4.0426   -2.5804 C.2       1 <0>         0.0421
     12 C11         2.7622   -4.4375   -1.9802 C.ar      1 <0>        -0.1074
     13 C12         3.1509   -5.6775   -1.4414 C.ar      1 <0>        -0.0432
     14 C13         4.4442   -5.7786   -0.9657 C.ar      1 <0>        -0.1576
     15 C14         5.3267   -4.7087   -1.0144 C.ar      1 <0>         0.1347
     16 C15         4.9495   -3.4671   -1.5320 C.ar      1 <0>        -0.1386
     17 C16         3.6578   -3.3437   -1.9964 C.ar      1 <0>        -0.0476
     18 C17         2.9450   -2.1264   -2.5166 C.3       1 <0>        -0.0804
     19 O2          6.5901   -4.8728   -0.5462 O.3       1 <0>        -0.4994
     20 C18         0.5817   -6.2859   -3.1115 C.2       1 <0>        -0.0915
     21 C19        -0.2500   -7.1737   -2.4801 C.2       1 <0>        -0.1360
     22 C20         0.0153   -8.5211   -2.5894 C.2       1 <0>        -0.1541
     23 C21         1.0878   -8.9276   -3.3161 C.2       1 <0>        -0.1757
     24 S1          1.7646   -7.3768   -3.8850 S.3       1 <0>         0.0428
     25 H1          1.0039    1.9031    0.0027 H         1 <0>         0.0539
     26 H2         -0.5459    1.8868   -0.8726 H         1 <0>         0.0542
     27 H3         -0.5289    1.8773    0.9072 H         1 <0>         0.0540
     28 H4          0.5293   -0.3651    0.8851 H         1 <0>         0.0615
     29 H5         -1.0205   -0.3814    0.0098 H         1 <0>         0.0617
     30 H6          0.1910   -0.1364   -2.1398 H         1 <0>         0.0691
     31 H7          1.7408   -0.1202   -1.2645 H         1 <0>         0.0674
     32 H8          1.2661   -2.3884   -0.3821 H         1 <0>         0.0720
     33 H9         -0.2836   -2.4046   -1.2575 H         1 <0>         0.0716
     34 H10         0.6979   -0.9446   -3.7842 H         1 <0>         0.0902
     35 H11         1.3086   -2.3665   -4.6688 H         1 <0>         0.0763
     36 H12        -1.2240   -2.2548   -2.9683 H         1 <0>         0.1073
     37 H13        -1.1604   -2.2984   -4.7440 H         1 <0>         0.1020
     38 H14         2.4684   -6.5136   -1.4011 H         1 <0>         0.1362
     39 H15         4.7772   -6.7155   -0.5442 H         1 <0>         0.1320
     40 H16         5.6414   -2.6386   -1.5670 H         1 <0>         0.1413
     41 H17         3.2810   -1.8918   -3.5266 H         1 <0>         0.0949
     42 H18         3.1100   -1.2771   -1.8535 H         1 <0>         0.0964
     43 H19         7.2209   -5.1752   -1.2139 H         1 <0>         0.3956
     44 H20        -1.0965   -6.8238   -1.9078 H         1 <0>         0.1328
     45 H21        -0.6217   -9.2451   -2.1029 H         1 <0>         0.1360
     46 H22         1.4392   -9.9314   -3.5043 H         1 <0>         0.1868
@<TRIPOS>BOND
     1    1    2 1
     2    1   25 1
     3    1   26 1
     4    1   27 1
     5    2    3 1
     6    2   28 1
     7    2   29 1
     8    3    4 1
     9    3   30 1
    10    3   31 1
    11    4    5 1
    12    4   32 1
    13    4   33 1
    14    5   11 1
    15    5   18 1
    16    5    6 1
    17    6    7 1
    18    6   34 1
    19    6   35 1
    20    7    8 1
    21    7   36 1
    22    7   37 1
    23    8    9 2
    24    8   10 1
    25   10   11 2
    26   10   20 1
    27   11   12 1
    28   12   17 ar
    29   12   13 ar
    30   13   14 ar
    31   13   38 1
    32   14   15 ar
    33   14   39 1
    34   15   16 ar
    35   15   19 1
    36   16   17 ar
    37   16   40 1
    38   17   18 1
    39   18   41 1
    40   18   42 1
    41   19   43 1
    42   20   24 1
    43   20   21 2
    44   21   22 1
    45   21   44 1
    46   22   23 2
    47   22   45 1
    48   23   24 1
    49   23   46 1
@<TRIPOS>MOLECULE
CHEMBL209429__1
   46    49     0     0     0
SMALL
USER_CHARGES

@<TRIPOS>ATOM
      1 C1         -0.0187    1.5258    0.0104 C.3       1 <0>        -0.1540
      2 C2          0.0021   -0.0041    0.0020 C.3       1 <0>        -0.1259
      3 C3          0.7182   -0.4975   -1.2568 C.3       1 <0>        -0.1215
      4 C4          0.7390   -2.0273   -1.2652 C.3       1 <0>        -0.1016
      5 C5          1.4551   -2.5207   -2.5240 C.3       1 <0>        -0.0370
      6 C6          2.8961   -2.0108   -2.5819 C.3       1 <0>        -0.1078
      7 C7          3.6669   -2.5731   -1.3836 C.3       1 <0>        -0.1624
      8 C8          3.6320   -4.0784   -1.3926 C.2       1 <0>         0.3995
      9 O1          4.5352   -4.7063   -0.8792 O.2       1 <0>        -0.4480
     10 C9          2.5113   -4.7908   -2.0184 C.2       1 <0>        -0.1236
     11 C10         1.5028   -4.0426   -2.5804 C.2       1 <0>         0.0424
     12 C11         0.3451   -4.4628   -3.3454 C.ar      1 <0>        -0.1076
     13 C12        -0.2972   -5.7136   -3.3890 C.ar      1 <0>        -0.0620
     14 C13        -1.3704   -5.8394   -4.2500 C.ar      1 <0>        -0.1580
     15 C14        -1.8013   -4.7833   -5.0405 C.ar      1 <0>         0.1332
     16 C15        -1.1827   -3.5314   -4.9961 C.ar      1 <0>        -0.1383
     17 C16        -0.1206   -3.3832   -4.1305 C.ar      1 <0>        -0.0480
     18 C17         0.6735   -2.1501   -3.7996 C.3       1 <0>        -0.0801
     19 O2         -2.8514   -4.9717   -5.8796 O.3       1 <0>        -0.4989
     20 C18         2.4682   -6.2661   -2.0449 C.2       1 <0>        -0.0909
     21 C19         3.3086   -7.1435   -2.6795 C.2       1 <0>        -0.1323
     22 C20         3.0679   -8.4946   -2.5589 C.2       1 <0>        -0.1513
     23 C21         2.0102   -8.9149   -1.8184 C.2       1 <0>        -0.1754
     24 S1          1.3126   -7.3723   -1.2521 S.3       1 <0>         0.0402
     25 H1          1.0039    1.9031    0.0027 H         1 <0>         0.0544
     26 H2         -0.5459    1.8868   -0.8726 H         1 <0>         0.0538
     27 H3         -0.5289    1.8773    0.9072 H         1 <0>         0.0540
     28 H4          0.5293   -0.3651    0.8851 H         1 <0>         0.0618
     29 H5         -1.0205   -0.3814    0.0098 H         1 <0>         0.0613
     30 H6          0.1910   -0.1364   -2.1398 H         1 <0>         0.0675
     31 H7          1.7408   -0.1202   -1.2645 H         1 <0>         0.0694
     32 H8          1.2661   -2.3884   -0.3821 H         1 <0>         0.0715
     33 H9         -0.2836   -2.4046   -1.2575 H         1 <0>         0.0717
     34 H10         3.3650   -2.3450   -3.5074 H         1 <0>         0.0769
     35 H11         2.9001   -0.9216   -2.5404 H         1 <0>         0.0900
     36 H12         4.7027   -2.2371   -1.4325 H         1 <0>         0.1022
     37 H13         3.2143   -2.2084   -0.4616 H         1 <0>         0.1070
     38 H14         0.0343   -6.5393   -2.7768 H         1 <0>         0.1490
     39 H15        -1.8884   -6.7853   -4.3092 H         1 <0>         0.1318
     40 H16        -1.5228   -2.7138   -5.6143 H         1 <0>         0.1414
     41 H17         0.0070   -1.3096   -3.6061 H         1 <0>         0.0962
     42 H18         1.3612   -1.9119   -4.6109 H         1 <0>         0.0951
     43 H19        -3.7114   -4.7748   -5.4837 H         1 <0>         0.3950
     44 H20         4.1429   -6.7827   -3.2628 H         1 <0>         0.1335
     45 H21         3.7122   -9.2105   -3.0475 H         1 <0>         0.1371
     46 H22         1.6783   -9.9233   -1.6202 H         1 <0>         0.1884
@<TRIPOS>BOND
     1    1    2 1
     2    1   25 1
     3    1   26 1
     4    1   27 1
     5    2    3 1
     6    2   28 1
     7    2   29 1
     8    3    4 1
     9    3   30 1
    10    3   31 1
    11    4    5 1
    12    4   32 1
    13    4   33 1
    14    5   11 1
    15    5   18 1
    16    5    6 1
    17    6    7 1
    18    6   34 1
    19    6   35 1
    20    7    8 1
    21    7   36 1
    22    7   37 1
    23    8    9 2
    24    8   10 1
    25   10   11 2
    26   10   20 1
    27   11   12 1
    28   12   17 ar
    29   12   13 ar
    30   13   14 ar
    31   13   38 1
    32   14   15 ar
    33   14   39 1
    34   15   16 ar
    35   15   19 1
    36   16   17 ar
    37   16   40 1
    38   17   18 1
    39   18   41 1
    40   18   42 1
    41   19   43 1
    42   20   24 1
    43   20   21 2
    44   21   22 1
    45   21   44 1
    46   22   23 2
    47   22   45 1
    48   23   24 1
    49   23   46 1
@<TRIPOS>MOLECULE
CHEMBL205119
   35    37     0     0     0
SMALL
USER_CHARGES

@<TRIPOS>ATOM
      1 C1         -1.8197    0.9846   -0.1849 C.3       1 <0>        -0.1166
      2 C2         -1.4127   -0.4649   -0.1195 C.ar      1 <0>        -0.1078
      3 C3         -1.4009   -1.2351   -1.2751 C.ar      1 <0>         0.1087
      4 C4         -1.0244   -2.5703   -1.2218 C.ar      1 <0>        -0.1440
      5 C5         -0.6698   -3.1396   -0.0158 C.ar      1 <0>        -0.1176
      6 C6         -0.6961   -2.3742    1.1455 C.ar      1 <0>        -0.0473
      7 C7         -1.0470   -1.0239    1.0863 C.ar      1 <0>        -0.0578
      8 C8         -1.0012   -0.1797    2.3316 C.3       1 <0>        -0.0833
      9 C9         -1.4268   -0.9924    3.5505 C.3       1 <0>        -0.0801
     10 C10        -0.6588   -2.2855    3.6227 C.ar      1 <0>        -0.0527
     11 C11        -0.3307   -2.9625    2.4538 C.ar      1 <0>        -0.0427
     12 C12         0.3593   -4.1833    2.5217 C.ar      1 <0>        -0.0273
     13 C13         0.7169   -4.7013    3.7660 C.ar      1 <0>        -0.1391
     14 C14         0.3849   -4.0126    4.9206 C.ar      1 <0>         0.1142
     15 C15        -0.2895   -2.8055    4.8460 C.ar      1 <0>        -0.1428
     16 O1          0.7406   -4.5148    6.1322 O.3       1 <0>        -0.4982
     17 C16         0.7032   -4.9131    1.2854 C.2       1 <0>        -0.1307
     18 C17         0.5474   -6.2295    1.2269 C.2       1 <0>        -0.1716
     19 O2         -1.7595   -0.6798   -2.4623 O.3       1 <0>        -0.4956
     20 H1         -0.9405    1.6007   -0.3735 H         1 <0>         0.0703
     21 H2         -2.5404    1.1236   -0.9907 H         1 <0>         0.0743
     22 H3         -2.2725    1.2779    0.7622 H         1 <0>         0.0720
     23 H4         -1.0095   -3.1635   -2.1241 H         1 <0>         0.1311
     24 H5         -0.3728   -4.1771    0.0264 H         1 <0>         0.1546
     25 H6          0.0150    0.1854    2.4806 H         1 <0>         0.0820
     26 H7         -1.6736    0.6701    2.2142 H         1 <0>         0.0881
     27 H8         -1.2375   -0.4116    4.4532 H         1 <0>         0.0843
     28 H9         -2.4924   -1.2111    3.4820 H         1 <0>         0.0826
     29 H10         1.2512   -5.6378    3.8291 H         1 <0>         0.1331
     30 H11        -0.5422   -2.2765    5.7531 H         1 <0>         0.1321
     31 H12         1.6086   -4.2204    6.4405 H         1 <0>         0.3922
     32 H13         1.0817   -4.3756    0.4285 H         1 <0>         0.1339
     33 H14         0.7990   -6.7634    0.3225 H         1 <0>         0.1095
     34 H15         0.1689   -6.7670    2.0838 H         1 <0>         0.1026
     35 H16        -1.0233   -0.2878   -2.9515 H         1 <0>         0.3899
@<TRIPOS>BOND
     1    1    2 1
     2    1   20 1
     3    1   21 1
     4    1   22 1
     5    2    7 ar
     6    2    3 ar
     7    3    4 ar
     8    3   19 1
     9    4    5 ar
    10    4   23 1
    11    5    6 ar
    12    5   24 1
    13    6   11 1
    14    6    7 ar
    15    7    8 1
    16    8    9 1
    17    8   25 1
    18    8   26 1
    19    9   10 1
    20    9   27 1
    21    9   28 1
    22   10   15 ar
    23   10   11 ar
    24   11   12 ar
    25   12   13 ar
    26   12   17 1
    27   13   14 ar
    28   13   29 1
    29   14   15 ar
    30   14   16 1
    31   15   30 1
    32   16   31 1
    33   17   18 2
    34   17   32 1
    35   18   33 1
    36   18   34 1
    37   19   35 1
@<TRIPOS>MOLECULE
CHEMBL1083178
   65    70     0     0     0
SMALL
USER_CHARGES

@<TRIPOS>ATOM
      1 C1         -0.0164    1.3773   -0.0547 C.ar      1 <0>        -0.0578
      2 C2          1.1697    2.0854   -0.0624 C.ar      1 <0>        -0.1495
      3 C3          2.3801    1.4093   -0.0131 C.ar      1 <0>         0.1412
      4 C4          2.3960    0.0233    0.0439 C.ar      1 <0>        -0.2075
      5 C5          1.2071   -0.6802    0.0513 C.ar      1 <0>        -0.0630
      6 C6          0.0021   -0.0041    0.0020 C.ar      1 <0>        -0.1543
      7 C7         -1.2934   -0.7740    0.0107 C.3       1 <0>         0.1935
      8 H1         -2.0997   -0.1244   -0.3298 H         1 <0>         0.1300
      9 C8         -1.5866   -1.2357    1.4120 C.2       1 <0>        -0.1041
     10 C9         -1.1299   -2.4395    1.8287 C.2       1 <0>        -0.0458
     11 C10        -1.4430   -2.9122    3.2220 C.3       1 <0>        -0.1192
     12 C11        -0.6172   -2.1389    4.2485 C.3       1 <0>         0.0753
     13 O1         -0.6164   -0.7458    3.9658 O.3       1 <0>        -0.3214
     14 C12        -1.7993   -0.1682    3.6334 C.ar      1 <0>         0.1344
     15 C13        -2.3300   -0.3844    2.3504 C.ar      1 <0>        -0.0791
     16 C14        -3.5413    0.2038    1.9903 C.ar      1 <0>        -0.0754
     17 C15        -4.2148    0.9944    2.8985 C.ar      1 <0>        -0.1496
     18 C16        -3.6902    1.2050    4.1675 C.ar      1 <0>         0.1285
     19 C17        -2.4836    0.6237    4.5343 C.ar      1 <0>        -0.1581
     20 O2         -4.3618    1.9843    5.0550 O.3       1 <0>        -0.4951
     21 C18        -0.3531   -3.2590    0.8892 C.ar      1 <0>        -0.1268
     22 C19         0.4240   -4.3318    1.3187 C.ar      1 <0>        -0.0575
     23 C20         1.1362   -5.0712    0.3969 C.ar      1 <0>        -0.1705
     24 C21         1.0801   -4.7483   -0.9535 C.ar      1 <0>         0.1461
     25 C22         0.3073   -3.6806   -1.3900 C.ar      1 <0>        -0.1741
     26 C23        -0.4119   -2.9340   -0.4780 C.ar      1 <0>         0.1534
     27 O3         -1.1834   -1.8906   -0.8725 O.3       1 <0>        -0.2970
     28 O4          1.7866   -5.4821   -1.8527 O.3       1 <0>        -0.4950
     29 O5          3.5484    2.1036   -0.0209 O.3       1 <0>        -0.2956
     30 C24         4.7562    1.3418    0.0319 C.3       1 <0>         0.0601
     31 C25         5.9577    2.2889    0.0142 C.3       1 <0>         0.0614
     32 N1          5.9578    3.1027    1.2371 N.3       1 <0>        -0.5463
     33 C26         6.1363    2.2649    2.4252 C.3       1 <0>         0.0505
     34 C27         5.6828    3.0301    3.6739 C.3       1 <0>        -0.0730
     35 S1          6.7223    4.5139    3.8451 S.3       1 <0>        -0.2730
     36 C28         6.6295    5.2619    2.1887 C.3       1 <0>        -0.0741
     37 C29         6.9480    4.1785    1.1517 C.3       1 <0>         0.0569
     38 H2         -0.9591    1.9033   -0.0886 H         1 <0>         0.1298
     39 H3          1.1547    3.1644   -0.1071 H         1 <0>         0.1330
     40 H4          3.3370   -0.5053    0.0820 H         1 <0>         0.1253
     41 H5          1.2189   -1.7592    0.0956 H         1 <0>         0.1260
     42 H6         -2.5030   -2.7588    3.4241 H         1 <0>         0.0841
     43 H7         -1.2123   -3.9745    3.3016 H         1 <0>         0.0933
     44 H8         -1.0379   -2.3016    5.2408 H         1 <0>         0.0634
     45 H9          0.4086   -2.5071    4.2319 H         1 <0>         0.1020
     46 H10        -3.9507    0.0417    1.0041 H         1 <0>         0.1353
     47 H11        -5.1532    1.4517    2.6216 H         1 <0>         0.1362
     48 H12        -2.0808    0.7910    5.5223 H         1 <0>         0.1386
     49 H13        -4.9888    1.4992    5.6087 H         1 <0>         0.3944
     50 H14         0.4693   -4.5834    2.3680 H         1 <0>         0.1345
     51 H15         1.7399   -5.9040    0.7262 H         1 <0>         0.1355
     52 H16         0.2687   -3.4345   -2.4409 H         1 <0>         0.1415
     53 H17         1.3004   -6.2360   -2.2138 H         1 <0>         0.3965
     54 H18         4.7731    0.7505    0.9474 H         1 <0>         0.0647
     55 H19         4.8046    0.6773   -0.8308 H         1 <0>         0.0690
     56 H20         6.8782    1.7071   -0.0352 H         1 <0>         0.0604
     57 H21         5.8932    2.9414   -0.8565 H         1 <0>         0.0917
     58 H22         5.5420    1.3571    2.3209 H         1 <0>         0.0859
     59 H23         7.1884    1.9984    2.5258 H         1 <0>         0.0505
     60 H24         4.6386    3.3236    3.5657 H         1 <0>         0.0928
     61 H25         5.7977    2.3976    4.5541 H         1 <0>         0.1076
     62 H26         5.6258    5.6508    2.0170 H         1 <0>         0.0930
     63 H27         7.3558    6.0707    2.1097 H         1 <0>         0.1088
     64 H28         7.9412    3.7729    1.3449 H         1 <0>         0.0502
     65 H29         6.9239    4.6146    0.1530 H         1 <0>         0.0876
@<TRIPOS>BOND
     1    1    6 ar
     2    1    2 ar
     3    1   38 1
     4    2    3 ar
     5    2   39 1
     6    3    4 ar
     7    3   29 1
     8    4    5 ar
     9    4   40 1
    10    5    6 ar
    11    5   41 1
    12    6    7 1
    13    7    8 1
    14    7   27 1
    15    7    9 1
    16    9   15 1
    17    9   10 2
    18   10   11 1
    19   10   21 1
    20   11   12 1
    21   11   42 1
    22   11   43 1
    23   12   13 1
    24   12   44 1
    25   12   45 1
    26   13   14 1
    27   14   19 ar
    28   14   15 ar
    29   15   16 ar
    30   16   17 ar
    31   16   46 1
    32   17   18 ar
    33   17   47 1
    34   18   19 ar
    35   18   20 1
    36   19   48 1
    37   20   49 1
    38   21   26 ar
    39   21   22 ar
    40   22   23 ar
    41   22   50 1
    42   23   24 ar
    43   23   51 1
    44   24   25 ar
    45   24   28 1
    46   25   26 ar
    47   25   52 1
    48   26   27 1
    49   28   53 1
    50   29   30 1
    51   30   31 1
    52   30   54 1
    53   30   55 1
    54   31   32 1
    55   31   56 1
    56   31   57 1
    57   32   37 1
    58   32   33 1
    59   33   34 1
    60   33   58 1
    61   33   59 1
    62   34   35 1
    63   34   60 1
    64   34   61 1
    65   35   36 1
    66   36   37 1
    67   36   62 1
    68   36   63 1
    69   37   64 1
    70   37   65 1
@<TRIPOS>MOLECULE
CHEMBL1083178__1
   66    71     0     0     0
SMALL
USER_CHARGES

@<TRIPOS>ATOM
      1 C1         -0.0052    1.1640    0.2796 C.ar      1 <0>        -0.0567
      2 C2          1.1491    1.9224    0.2523 C.ar      1 <0>        -0.1382
      3 C3          2.3853    1.2991    0.1629 C.ar      1 <0>         0.1178
      4 C4          2.4588   -0.0849    0.1010 C.ar      1 <0>        -0.1972
      5 C5          1.3016   -0.8388    0.1286 C.ar      1 <0>        -0.0634
      6 C6          0.0708   -0.2152    0.2178 C.ar      1 <0>        -0.1295
      7 C7         -1.1900   -1.0401    0.2481 C.3       1 <0>         0.1889
      8 H1         -2.0430   -0.4014    0.0188 H         1 <0>         0.1336
      9 C8         -1.3655   -1.6276    1.6218 C.2       1 <0>        -0.1102
     10 C9         -0.8343   -2.8399    1.9034 C.2       1 <0>        -0.0385
     11 C10        -1.0296   -3.4385    3.2694 C.3       1 <0>        -0.1222
     12 C11        -0.1640   -2.7158    4.3000 C.3       1 <0>         0.0757
     13 O1         -0.2371   -1.3057    4.1370 O.3       1 <0>        -0.3253
     14 C12        -1.4620   -0.7560    3.9349 C.ar      1 <0>         0.1312
     15 C13        -2.0732   -0.8899    2.6768 C.ar      1 <0>        -0.0822
     16 C14        -3.3287   -0.3285    2.4498 C.ar      1 <0>        -0.0748
     17 C15        -3.9665    0.3543    3.4649 C.ar      1 <0>        -0.1478
     18 C16        -3.3623    0.4834    4.7091 C.ar      1 <0>         0.1319
     19 C17        -2.1111   -0.0717    4.9436 C.ar      1 <0>        -0.1585
     20 O2         -3.9991    1.1568    5.7026 O.3       1 <0>        -0.4955
     21 C18        -0.0946   -3.5444    0.8478 C.ar      1 <0>        -0.1306
     22 C19         0.7519   -4.6131    1.1317 C.ar      1 <0>        -0.0558
     23 C20         1.4253   -5.2422    0.1049 C.ar      1 <0>        -0.1691
     24 C21         1.2616   -4.8126   -1.2066 C.ar      1 <0>         0.1493
     25 C22         0.4191   -3.7482   -1.4981 C.ar      1 <0>        -0.1743
     26 C23        -0.2622   -3.1115   -0.4799 C.ar      1 <0>         0.1490
     27 O3         -1.0995   -2.0746   -0.7319 O.3       1 <0>        -0.2943
     28 O4          1.9307   -5.4381   -2.2101 O.3       1 <0>        -0.4959
     29 O5          3.5223    2.0430    0.1355 O.3       1 <0>        -0.3280
     30 C24         4.7595    1.3339    0.0424 C.3       1 <0>         0.0235
     31 C25         5.9191    2.3317    0.0244 C.3       1 <0>        -0.0004
     32 N1          5.9674    3.0495    1.3052 N.4       1 <0>        -0.3907
     33 C26         6.2925    2.1027    2.3739 C.3       1 <0>        -0.0190
     34 C27         5.9861    2.7320    3.7381 C.3       1 <0>        -0.1261
     35 S1          7.0448    4.1988    3.9403 S.3       1 <0>        -0.1893
     36 C28         6.7792    5.0997    2.3812 C.3       1 <0>        -0.1278
     37 C29         6.9669    4.1163    1.2200 C.3       1 <0>        -0.0111
     38 H2         -0.9675    1.6486    0.3537 H         1 <0>         0.1378
     39 H3          1.0893    2.9997    0.3003 H         1 <0>         0.1356
     40 H4          3.4200   -0.5725    0.0310 H         1 <0>         0.1276
     41 H5          1.3583   -1.9163    0.0805 H         1 <0>         0.1339
     42 H6         -2.0779   -3.3495    3.5545 H         1 <0>         0.0866
     43 H7         -0.7529   -4.4925    3.2431 H         1 <0>         0.0954
     44 H8         -0.5069   -2.9778    5.3009 H         1 <0>         0.0654
     45 H9          0.8716   -3.0355    4.1835 H         1 <0>         0.1014
     46 H10        -3.8002   -0.4275    1.4832 H         1 <0>         0.1361
     47 H11        -4.9392    0.7905    3.2914 H         1 <0>         0.1382
     48 H12        -1.6463    0.0319    5.9129 H         1 <0>         0.1387
     49 H13        -4.5663    0.6006    6.2540 H         1 <0>         0.3979
     50 H14         0.8808   -4.9475    2.1505 H         1 <0>         0.1360
     51 H15         2.0826   -6.0714    0.3212 H         1 <0>         0.1375
     52 H16         0.2969   -3.4189   -2.5194 H         1 <0>         0.1425
     53 H17         1.4498   -6.1808   -2.6003 H         1 <0>         0.4007
     54 H18         4.8638    0.6710    0.9014 H         1 <0>         0.0870
     55 H19         4.7726    0.7450   -0.8747 H         1 <0>         0.1129
     56 H20         6.8565    1.7967   -0.1278 H         1 <0>         0.1536
     57 H21         5.7721    3.0450   -0.7866 H         1 <0>         0.1469
     58 H22         5.6967    1.1984    2.2502 H         1 <0>         0.1420
     59 H23         7.3509    1.8476    2.3222 H         1 <0>         0.1460
     60 H24         4.9376    3.0270    3.7797 H         1 <0>         0.1114
     61 H25         6.1981    2.0138    4.5301 H         1 <0>         0.1545
     62 H26         5.7680    5.5058    2.3591 H         1 <0>         0.1114
     63 H27         7.5033    5.9102    2.2972 H         1 <0>         0.1555
     64 H28         7.9654    3.6820    1.2709 H         1 <0>         0.1444
     65 H29         6.8515    4.6461    0.2744 H         1 <0>         0.1460
     66 H30         5.0633    3.4575    1.4897 H         1 <0>         0.4287
@<TRIPOS>BOND
     1    1    6 ar
     2    1    2 ar
     3    1   38 1
     4    2    3 ar
     5    2   39 1
     6    3    4 ar
     7    3   29 1
     8    4    5 ar
     9    4   40 1
    10    5    6 ar
    11    5   41 1
    12    6    7 1
    13    7    8 1
    14    7   27 1
    15    7    9 1
    16    9   15 1
    17    9   10 2
    18   10   11 1
    19   10   21 1
    20   11   12 1
    21   11   42 1
    22   11   43 1
    23   12   13 1
    24   12   44 1
    25   12   45 1
    26   13   14 1
    27   14   19 ar
    28   14   15 ar
    29   15   16 ar
    30   16   17 ar
    31   16   46 1
    32   17   18 ar
    33   17   47 1
    34   18   19 ar
    35   18   20 1
    36   19   48 1
    37   20   49 1
    38   21   26 ar
    39   21   22 ar
    40   22   23 ar
    41   22   50 1
    42   23   24 ar
    43   23   51 1
    44   24   25 ar
    45   24   28 1
    46   25   26 ar
    47   25   52 1
    48   26   27 1
    49   28   53 1
    50   29   30 1
    51   30   31 1
    52   30   54 1
    53   30   55 1
    54   31   32 1
    55   31   56 1
    56   31   57 1
    57   32   37 1
    58   32   33 1
    59   32   66 1
    60   33   34 1
    61   33   58 1
    62   33   59 1
    63   34   35 1
    64   34   60 1
    65   34   61 1
    66   35   36 1
    67   36   37 1
    68   36   62 1
    69   36   63 1
    70   37   64 1
    71   37   65 1
@<TRIPOS>MOLECULE
CHEMBL204434
   50    52     0     0     0
SMALL
USER_CHARGES

@<TRIPOS>ATOM
      1 C1          0.1460    1.0973    0.5968 C.3       1 <0>        -0.1516
      2 C2          0.0939   -0.4130    0.3573 C.3       1 <0>        -0.1485
      3 C3         -1.3639   -0.8773    0.3449 C.3       1 <0>         0.1103
      4 N1         -1.4139   -2.3234    0.1155 N.pl3     1 <0>        -0.9444
      5 C4         -1.3095   -3.2042    1.1918 C.ar      1 <0>         0.1414
      6 C5         -0.0608   -3.5654    1.6780 C.ar      1 <0>        -0.1118
      7 C6          0.0403   -4.4379    2.7441 C.ar      1 <0>        -0.1130
      8 C7         -1.0999   -4.9561    3.3336 C.ar      1 <0>        -0.1054
      9 C8         -2.3483   -4.6059    2.8609 C.ar      1 <0>        -0.1000
     10 C9         -2.4638   -3.7229    1.7899 C.ar      1 <0>        -0.0212
     11 C10        -3.8031   -3.3387    1.2822 C.ar      1 <0>        -0.0585
     12 C11        -4.1673   -1.9949    1.2167 C.ar      1 <0>        -0.1106
     13 C12        -5.4150   -1.6431    0.7434 C.ar      1 <0>        -0.1226
     14 C13        -6.3037   -2.6213    0.3347 C.ar      1 <0>        -0.1143
     15 C14        -5.9476   -3.9565    0.3975 C.ar      1 <0>        -0.1214
     16 C15        -4.7003   -4.3196    0.8632 C.ar      1 <0>        -0.0866
     17 S1         -1.5942   -2.9122   -1.4217 S.o2      1 <0>         2.6834
     18 O1         -2.2225   -4.1809   -1.2995 O.2       1 <0>        -0.9360
     19 O2         -2.1490   -1.8589   -2.1976 O.2       1 <0>        -0.9487
     20 C16         0.0215   -3.2097   -2.0586 C.ar      1 <0>        -0.6844
     21 C17         0.6475   -2.2474   -2.8296 C.ar      1 <0>        -0.0107
     22 C18         1.9139   -2.4783   -3.3304 C.ar      1 <0>        -0.1610
     23 C19         2.5581   -3.6769   -3.0588 C.ar      1 <0>         0.1636
     24 C20         1.9282   -4.6403   -2.2848 C.ar      1 <0>        -0.1297
     25 C21         0.6635   -4.4024   -1.7819 C.ar      1 <0>        -0.0017
     26 C22         2.6250   -5.9432   -1.9880 C.3       1 <0>        -0.1159
     27 O3          3.8039   -3.9067   -3.5508 O.3       1 <0>        -0.4932
     28 H1          1.1845    1.4281    0.6057 H         1 <0>         0.0594
     29 H2         -0.3920    1.6103   -0.2003 H         1 <0>         0.0595
     30 H3         -0.3174    1.3293    1.5557 H         1 <0>         0.0583
     31 H4          0.5573   -0.6450   -0.6016 H         1 <0>         0.0631
     32 H5          0.6318   -0.9261    1.1544 H         1 <0>         0.0714
     33 H6         -1.8273   -0.6453    1.3038 H         1 <0>         0.0898
     34 H7         -1.9019   -0.3643   -0.4523 H         1 <0>         0.1001
     35 H8          0.8324   -3.1645    1.2223 H         1 <0>         0.1281
     36 H9          1.0137   -4.7173    3.1194 H         1 <0>         0.1285
     37 H10        -1.0121   -5.6377    4.1668 H         1 <0>         0.1293
     38 H11        -3.2351   -5.0133    3.3235 H         1 <0>         0.1307
     39 H12        -3.4745   -1.2304    1.5362 H         1 <0>         0.1246
     40 H13        -5.6983   -0.6022    0.6922 H         1 <0>         0.1251
     41 H14        -7.2793   -2.3415   -0.0344 H         1 <0>         0.1237
     42 H15        -6.6454   -4.7160    0.0771 H         1 <0>         0.1255
     43 H16        -4.4216   -5.3621    0.9073 H         1 <0>         0.1259
     44 H17         0.1456   -1.3147   -3.0406 H         1 <0>         0.1446
     45 H18         2.4020   -1.7268   -3.9331 H         1 <0>         0.1409
     46 H19         0.1743   -5.1505   -1.1758 H         1 <0>         0.1416
     47 H20         3.2032   -5.8449   -1.0693 H         1 <0>         0.0735
     48 H21         1.8832   -6.7327   -1.8678 H         1 <0>         0.0728
     49 H22         3.2925   -6.1942   -2.8124 H         1 <0>         0.0773
     50 H23         4.5174   -3.6185   -2.9651 H         1 <0>         0.3988
@<TRIPOS>BOND
     1    1    2 1
     2    1   28 1
     3    1   29 1
     4    1   30 1
     5    2    3 1
     6    2   31 1
     7    2   32 1
     8    3    4 1
     9    3   33 1
    10    3   34 1
    11    4    5 1
    12    4   17 1
    13    5   10 ar
    14    5    6 ar
    15    6    7 ar
    16    6   35 1
    17    7    8 ar
    18    7   36 1
    19    8    9 ar
    20    8   37 1
    21    9   10 ar
    22    9   38 1
    23   10   11 1
    24   11   16 ar
    25   11   12 ar
    26   12   13 ar
    27   12   39 1
    28   13   14 ar
    29   13   40 1
    30   14   15 ar
    31   14   41 1
    32   15   16 ar
    33   15   42 1
    34   16   43 1
    35   17   18 2
    36   17   19 2
    37   17   20 1
    38   20   25 ar
    39   20   21 ar
    40   21   22 ar
    41   21   44 1
    42   22   23 ar
    43   22   45 1
    44   23   24 ar
    45   23   27 1
    46   24   25 ar
    47   24   26 1
    48   25   46 1
    49   26   47 1
    50   26   48 1
    51   26   49 1
    52   27   50 1
@<TRIPOS>MOLECULE
CHEMBL135739
   37    38     0     0     0
SMALL
USER_CHARGES

@<TRIPOS>ATOM
      1 C1         -1.5689   -0.3086   -0.4813 C.3       1 <0>        -0.1519
      2 C2         -0.0831   -0.1327   -0.1610 C.3       1 <0>        -0.1139
      3 C3          0.7542   -0.5944   -1.3554 C.3       1 <0>        -0.0351
      4 H1          0.4302   -0.0663   -2.2521 H         1 <0>         0.0911
      5 C4          0.5730   -2.0774   -1.5527 C.ar      1 <0>        -0.0918
      6 C5          0.9134   -2.9551   -0.5400 C.ar      1 <0>        -0.0970
      7 C6          0.7487   -4.3150   -0.7186 C.ar      1 <0>        -0.1418
      8 C7          0.2407   -4.7998   -1.9151 C.ar      1 <0>         0.1051
      9 C8         -0.1006   -3.9170   -2.9294 C.ar      1 <0>        -0.1417
     10 C9          0.0612   -2.5577   -2.7440 C.ar      1 <0>        -0.0937
     11 O1          0.0781   -6.1372   -2.0933 O.3       1 <0>        -0.4999
     12 C10         2.2304   -0.2918   -1.0907 C.3       1 <0>         0.0600
     13 H2          2.5427   -0.7837   -0.1695 H         1 <0>         0.1226
     14 C11         3.0424   -0.7904   -2.2127 C.1       1 <0>         0.2072
     15 N1          3.6689   -1.1752   -3.0786 N.1       1 <0>        -0.4163
     16 C12         2.4216    1.1969   -0.9549 C.ar      1 <0>        -0.0949
     17 C13         2.0600    2.0365   -1.9922 C.ar      1 <0>        -0.0878
     18 C14         2.2347    3.4015   -1.8704 C.ar      1 <0>        -0.1416
     19 C15         2.7728    3.9296   -0.7059 C.ar      1 <0>         0.1132
     20 C16         3.1343    3.0850    0.3337 C.ar      1 <0>        -0.1425
     21 C17         2.9529    1.7212    0.2089 C.ar      1 <0>        -0.0858
     22 O2          2.9460    5.2719   -0.5838 O.3       1 <0>        -0.4993
     23 H3         -1.8124    0.2427   -1.3895 H         1 <0>         0.0548
     24 H4         -1.7860   -1.3665   -0.6291 H         1 <0>         0.0565
     25 H5         -2.1667    0.0728    0.3465 H         1 <0>         0.0571
     26 H6          0.1228    0.9181    0.0426 H         1 <0>         0.0747
     27 H7          0.1729   -0.7294    0.7146 H         1 <0>         0.0703
     28 H8          1.3088   -2.5772    0.3913 H         1 <0>         0.1287
     29 H9          1.0154   -5.0002    0.0725 H         1 <0>         0.1297
     30 H10        -0.4962   -4.2920   -3.8618 H         1 <0>         0.1288
     31 H11        -0.2084   -1.8698   -3.5317 H         1 <0>         0.1253
     32 H12        -0.7885   -6.4680   -1.8198 H         1 <0>         0.3916
     33 H13         1.6411    1.6249   -2.8986 H         1 <0>         0.1267
     34 H14         1.9528    4.0569   -2.6812 H         1 <0>         0.1317
     35 H15         3.5535    3.4937    1.2412 H         1 <0>         0.1331
     36 H16         3.2301    1.0636    1.0196 H         1 <0>         0.1332
     37 H17         2.1847    5.7341   -0.2069 H         1 <0>         0.3936
@<TRIPOS>BOND
     1    1    2 1
     2    1   23 1
     3    1   24 1
     4    1   25 1
     5    2    3 1
     6    2   26 1
     7    2   27 1
     8    3    4 1
     9    3    5 1
    10    3   12 1
    11    5   10 ar
    12    5    6 ar
    13    6    7 ar
    14    6   28 1
    15    7    8 ar
    16    7   29 1
    17    8    9 ar
    18    8   11 1
    19    9   10 ar
    20    9   30 1
    21   10   31 1
    22   11   32 1
    23   12   13 1
    24   12   14 1
    25   12   16 1
    26   14   15 3
    27   16   21 ar
    28   16   17 ar
    29   17   18 ar
    30   17   33 1
    31   18   19 ar
    32   18   34 1
    33   19   20 ar
    34   19   22 1
    35   20   21 ar
    36   20   35 1
    37   21   36 1
    38   22   37 1
@<TRIPOS>MOLECULE
CHEMBL490197
   53    57     0     0     0
SMALL
USER_CHARGES

@<TRIPOS>ATOM
      1 C1         -0.0167    1.3791    0.0096 C.ar      1 <0>        -0.1145
      2 C2          1.1686    2.0924    0.0021 C.ar      1 <0>        -0.1195
      3 C3          2.3774    1.4269   -0.0130 C.ar      1 <0>        -0.0909
      4 C4          2.4025    0.0330   -0.0207 C.ar      1 <0>        -0.0423
      5 C5          1.2049   -0.6804   -0.0131 C.ar      1 <0>        -0.1009
      6 C6          0.0021   -0.0041    0.0020 C.ar      1 <0>        -0.1184
      7 C7          3.6979   -0.6878   -0.0375 C.ar      1 <0>        -0.0456
      8 C8          4.0477   -1.4658   -1.1518 C.ar      1 <0>        -0.0169
      9 C9          5.2284   -2.1360   -1.1925 C.ar      1 <0>        -0.1134
     10 C10         6.1225   -2.0581   -0.1084 C.ar      1 <0>        -0.0184
     11 C11         7.3479   -2.7434   -0.1312 C.ar      1 <0>        -0.1406
     12 C12         8.1958   -2.6486    0.9359 C.ar      1 <0>         0.1194
     13 C13         7.8598   -1.8771    2.0525 C.ar      1 <0>        -0.1408
     14 C14         6.6804   -1.2014    2.1050 C.ar      1 <0>        -0.0715
     15 C15         5.7848   -1.2768    1.0249 C.ar      1 <0>        -0.0720
     16 C16         4.5587   -0.5835    1.0471 C.ar      1 <0>         0.1224
     17 O1          4.2197    0.1744    2.1204 O.3       1 <0>        -0.2511
     18 C17         3.5374   -0.4210    3.1307 C.ar      1 <0>         0.1064
     19 C18         3.2127   -1.7709    3.0466 C.ar      1 <0>        -0.1854
     20 C19         2.5205   -2.3795    4.0683 C.ar      1 <0>        -0.0785
     21 C20         2.1433   -1.6373    5.1946 C.ar      1 <0>        -0.0612
     22 C21         2.4732   -0.2784    5.2745 C.ar      1 <0>        -0.0837
     23 C22         3.1701    0.3192    4.2496 C.ar      1 <0>        -0.1377
     24 C23         1.4040   -2.2816    6.2877 C.2       1 <0>        -0.1141
     25 C24         1.0406   -1.5622    7.3750 C.2       1 <0>        -0.1665
     26 C25         0.3291   -2.1823    8.4272 C.2       1 <0>         0.4998
     27 O2          0.0412   -3.3711    8.3549 O.co2     1 <0>        -0.6956
     28 O3          0.0001   -1.5311    9.4115 O.co2     1 <0>        -0.6996
     29 O4          9.3808   -3.3129    0.9118 O.3       1 <0>        -0.4987
     30 C26         3.0998   -1.5593   -2.3196 C.3       1 <0>        -0.1231
     31 C27         3.4291   -2.5729   -3.4173 C.3       1 <0>        -0.1754
     32 C28         3.6054   -1.0761   -3.6803 C.3       1 <0>        -0.1645
     33 H1         -0.9603    1.9042    0.0260 H         1 <0>         0.1214
     34 H2          1.1479    3.1722    0.0078 H         1 <0>         0.1224
     35 H3          3.3021    1.9848   -0.0192 H         1 <0>         0.1208
     36 H4          1.2183   -1.7603   -0.0194 H         1 <0>         0.1215
     37 H5         -0.9264   -0.5557    0.0079 H         1 <0>         0.1236
     38 H6          5.4813   -2.7301   -2.0582 H         1 <0>         0.1349
     39 H7          7.6186   -3.3428   -0.9878 H         1 <0>         0.1355
     40 H8          8.5457   -1.8172    2.8846 H         1 <0>         0.1328
     41 H9          6.4331   -0.6094    2.9738 H         1 <0>         0.1359
     42 H10         3.5041   -2.3423    2.1776 H         1 <0>         0.1208
     43 H11         2.2682   -3.4275    4.0016 H         1 <0>         0.1267
     44 H12         2.1843    0.2983    6.1407 H         1 <0>         0.1354
     45 H13         3.4289    1.3659    4.3122 H         1 <0>         0.1286
     46 H14         1.1503   -3.3294    6.2240 H         1 <0>         0.1275
     47 H15         1.2944   -0.5144    7.4387 H         1 <0>         0.0997
     48 H16        10.1105   -2.8023    0.5352 H         1 <0>         0.3913
     49 H17         2.0481   -1.3940   -2.0858 H         1 <0>         0.1208
     50 H18         4.3314   -3.1721   -3.2949 H         1 <0>         0.0989
     51 H19         2.5939   -3.0748   -3.9059 H         1 <0>         0.0998
     52 H20         2.8862   -0.5932   -4.3419 H         1 <0>         0.0984
     53 H21         4.6237   -0.6905   -3.7309 H         1 <0>         0.0962
@<TRIPOS>BOND
     1    1    6 ar
     2    1    2 ar
     3    1   33 1
     4    2    3 ar
     5    2   34 1
     6    3    4 ar
     7    3   35 1
     8    4    5 ar
     9    4    7 1
    10    5    6 ar
    11    5   36 1
    12    6   37 1
    13    7   16 ar
    14    7    8 ar
    15    8    9 ar
    16    8   30 1
    17    9   10 ar
    18    9   38 1
    19   10   15 ar
    20   10   11 ar
    21   11   12 ar
    22   11   39 1
    23   12   13 ar
    24   12   29 1
    25   13   14 ar
    26   13   40 1
    27   14   15 ar
    28   14   41 1
    29   15   16 ar
    30   16   17 1
    31   17   18 1
    32   18   23 ar
    33   18   19 ar
    34   19   20 ar
    35   19   42 1
    36   20   21 ar
    37   20   43 1
    38   21   22 ar
    39   21   24 1
    40   22   23 ar
    41   22   44 1
    42   23   45 1
    43   24   25 2
    44   24   46 1
    45   25   26 1
    46   25   47 1
    47   26   27 2
    48   26   28 1
    49   29   48 1
    50   30   32 1
    51   30   31 1
    52   30   49 1
    53   31   32 1
    54   31   50 1
    55   31   51 1
    56   32   52 1
    57   32   53 1
@<TRIPOS>MOLECULE
CHEMBL58563
   57    60     0     0     0
SMALL
USER_CHARGES

@<TRIPOS>ATOM
      1 C1         -0.0184    1.5028    0.0103 C.3       1 <0>        -0.1188
      2 C2          0.0021   -0.0041    0.0020 C.ar      1 <0>        -0.1010
      3 C3          0.0057   -0.6863   -1.1964 C.ar      1 <0>        -0.0533
      4 C4          0.0246   -2.0801   -1.2032 C.ar      1 <0>        -0.1124
      5 C5          0.0398   -2.7803    0.0026 C.ar      1 <0>        -0.0854
      6 C6          0.0361   -2.0927    1.1974 C.ar      1 <0>        -0.1329
      7 C7          0.0230   -0.7039    1.2009 C.ar      1 <0>         0.1546
      8 O1          0.0249   -0.0290    2.3798 O.3       1 <0>        -0.4880
      9 C8          0.0281   -2.8168   -2.4901 C.ar      1 <0>         0.2481
     10 C9          0.0181   -2.1095   -3.6869 C.ar      1 <0>        -0.1754
     11 C10         0.0220   -2.8148   -4.8927 C.ar      1 <0>         0.1346
     12 C11         0.0357   -4.2098   -4.8451 C.ar      1 <0>        -0.2196
     13 C12         0.0451   -4.8451   -3.6096 C.ar      1 <0>         0.4570
     14 N1          0.0461   -4.1448   -2.4865 N.ar      1 <0>        -0.5193
     15 N2          0.0583   -6.2342   -3.5522 N.pl3     1 <0>        -0.5904
     16 C13         0.0682   -6.9136   -2.2544 C.3       1 <0>         0.0553
     17 C14         0.0623   -7.0184   -4.7897 C.3       1 <0>         0.1140
     18 C15         1.5062   -7.2778   -5.2243 C.3       1 <0>        -0.0986
     19 C16         1.5104   -8.0845   -6.4972 C.ar      1 <0>        -0.0982
     20 C17         1.5178   -9.4656   -6.4402 C.ar      1 <0>        -0.1126
     21 C18         1.5216  -10.2056   -7.6078 C.ar      1 <0>        -0.1134
     22 C19         1.5176   -9.5644   -8.8324 C.ar      1 <0>        -0.1119
     23 C20         1.5092   -8.1833   -8.8895 C.ar      1 <0>        -0.1143
     24 C21         1.5010   -7.4433   -7.7219 C.ar      1 <0>        -0.1157
     25 C22         0.0112   -2.0985   -6.1924 C.ar      1 <0>        -0.1017
     26 C23         0.0095   -2.8166   -7.3864 C.ar      1 <0>        -0.0784
     27 C24        -0.0005   -2.1454   -8.5924 C.ar      1 <0>        -0.1194
     28 C25        -0.0083   -0.7624   -8.6170 C.ar      1 <0>        -0.0772
     29 C26        -0.0061   -0.0446   -7.4346 C.ar      1 <0>        -0.1189
     30 C27        -0.0029   -0.7056   -6.2230 C.ar      1 <0>        -0.0781
     31 H1          1.0042    1.8801    0.0026 H         1 <0>         0.0838
     32 H2         -0.5455    1.8639   -0.8728 H         1 <0>         0.0751
     33 H3         -0.5286    1.8543    0.9071 H         1 <0>         0.0778
     34 H4         -0.0065   -0.1413   -2.1287 H         1 <0>         0.1439
     35 H5          0.0541   -3.8602    0.0004 H         1 <0>         0.1232
     36 H6          0.0478   -2.6344    2.1316 H         1 <0>         0.1474
     37 H7         -0.8578    0.1543    2.7295 H         1 <0>         0.4047
     38 H8          0.0072   -1.0295   -3.6845 H         1 <0>         0.1775
     39 H9          0.0387   -4.7880   -5.7573 H         1 <0>         0.1777
     40 H10        -0.9570   -7.0918   -1.9297 H         1 <0>         0.0855
     41 H11         0.5908   -7.8657   -2.3467 H         1 <0>         0.1084
     42 H12         0.5781   -6.2889   -1.5211 H         1 <0>         0.0702
     43 H13        -0.4421   -7.9694   -4.6188 H         1 <0>         0.1090
     44 H14        -0.4588   -6.4660   -5.5716 H         1 <0>         0.0972
     45 H15         2.0106   -6.3268   -5.3952 H         1 <0>         0.0795
     46 H16         2.0274   -7.8301   -4.4424 H         1 <0>         0.0837
     47 H17         1.5210   -9.9666   -5.4834 H         1 <0>         0.1222
     48 H18         1.5282  -11.2847   -7.5632 H         1 <0>         0.1269
     49 H19         1.5213  -10.1425   -9.7447 H         1 <0>         0.1269
     50 H20         1.5063   -7.6823   -9.8463 H         1 <0>         0.1264
     51 H21         1.4907   -6.3643   -7.7664 H         1 <0>         0.1195
     52 H22         0.0163   -3.8965   -7.3684 H         1 <0>         0.1293
     53 H23        -0.0018   -2.7010   -9.5185 H         1 <0>         0.1369
     54 H24        -0.0157   -0.2412   -9.5628 H         1 <0>         0.1363
     55 H25        -0.0115    1.0351   -7.4596 H         1 <0>         0.1376
     56 H26        -0.0061   -0.1442   -5.3004 H         1 <0>         0.1319
     57 H27         0.0568   -4.6142   -1.6377 H         1 <0>         0.4327
@<TRIPOS>BOND
     1    1    2 1
     2    1   31 1
     3    1   32 1
     4    1   33 1
     5    2    7 ar
     6    2    3 ar
     7    3    4 ar
     8    3   34 1
     9    4    5 ar
    10    4    9 1
    11    5    6 ar
    12    5   35 1
    13    6    7 ar
    14    6   36 1
    15    7    8 1
    16    8   37 1
    17    9   14 ar
    18    9   10 ar
    19   10   11 ar
    20   10   38 1
    21   11   12 ar
    22   11   25 1
    23   12   13 ar
    24   12   39 1
    25   13   14 ar
    26   13   15 1
    27   14   57 1
    28   15   16 1
    29   15   17 1
    30   16   40 1
    31   16   41 1
    32   16   42 1
    33   17   18 1
    34   17   43 1
    35   17   44 1
    36   18   19 1
    37   18   45 1
    38   18   46 1
    39   19   24 ar
    40   19   20 ar
    41   20   21 ar
    42   20   47 1
    43   21   22 ar
    44   21   48 1
    45   22   23 ar
    46   22   49 1
    47   23   24 ar
    48   23   50 1
    49   24   51 1
    50   25   30 ar
    51   25   26 ar
    52   26   27 ar
    53   26   52 1
    54   27   28 ar
    55   27   53 1
    56   28   29 ar
    57   28   54 1
    58   29   30 ar
    59   29   55 1
    60   30   56 1
@<TRIPOS>MOLECULE
CHEMBL91452
   34    36     0     0     0
SMALL
USER_CHARGES

@<TRIPOS>ATOM
      1 C1          0.0064    1.2434    0.2299 C.2       1 <0>        -0.1542
      2 C2          1.2019    1.9327    0.3085 C.2       1 <0>        -0.1379
      3 C3          2.3495    1.2999   -0.0376 C.2       1 <0>        -0.1402
      4 S1          1.7548   -0.3206   -0.4930 S.3       1 <0>         0.0751
      5 C4          0.0169   -0.0450   -0.1911 C.2       1 <0>        -0.1717
      6 C5          3.7611    1.8276   -0.0384 C.3       1 <0>         0.2834
      7 C6          4.3590    1.6595   -1.4130 C.ar      1 <0>        -0.1105
      8 C7          3.6082    2.0851   -2.5011 C.ar      1 <0>        -0.0765
      9 C8          4.1022    1.9687   -3.7828 C.ar      1 <0>        -0.1432
     10 C9          5.3615    1.4225   -3.9864 C.ar      1 <0>         0.1196
     11 C10         6.1072    0.9950   -2.9017 C.ar      1 <0>        -0.1456
     12 C11         5.6050    1.1076   -1.6116 C.ar      1 <0>        -0.0461
     13 C12         6.4615    0.5962   -0.4832 C.3       1 <0>        -0.1001
     14 C13         6.0249    1.2032    0.8493 C.3       1 <0>         0.0954
     15 N1          4.5603    1.0851    0.9421 N.am      1 <0>        -0.5901
     16 C14         3.9772    0.3248    1.8900 C.2       1 <0>         0.4809
     17 O1          2.7723    0.1867    1.9002 O.2       1 <0>        -0.4415
     18 C15         4.8223   -0.3538    2.9370 C.3       1 <0>         0.4504
     19 F1          3.9978   -1.0801    3.8030 F         1 <0>        -0.1499
     20 F2          5.7262   -1.2223    2.3158 F         1 <0>        -0.1672
     21 F3          5.5276    0.6111    3.6643 F         1 <0>        -0.1662
     22 O2          5.8602    1.3075   -5.2454 O.3       1 <0>        -0.4978
     23 H1         -0.9218    1.7228    0.5040 H         1 <0>         0.1317
     24 H2          1.2213    2.9602    0.6405 H         1 <0>         0.1285
     25 H3         -0.8111   -0.7278   -0.3122 H         1 <0>         0.1832
     26 H4          3.7532    2.8849    0.2261 H         1 <0>         0.1148
     27 H5          2.6285    2.5108   -2.3418 H         1 <0>         0.1308
     28 H6          3.5121    2.3006   -4.6242 H         1 <0>         0.1338
     29 H7          7.0875    0.5703   -3.0596 H         1 <0>         0.1328
     30 H8          6.3727   -0.4888   -0.4290 H         1 <0>         0.0902
     31 H9          7.5014    0.8610   -0.6740 H         1 <0>         0.0999
     32 H10         6.4914    0.6612    1.6719 H         1 <0>         0.0979
     33 H11         6.3134    2.2536    0.8882 H         1 <0>         0.0965
     34 H12         6.3643    2.0781   -5.5406 H         1 <0>         0.3939
@<TRIPOS>BOND
     1    1    5 2
     2    1    2 1
     3    1   23 1
     4    2    3 2
     5    2   24 1
     6    3    4 1
     7    3    6 1
     8    4    5 1
     9    5   25 1
    10    6   15 1
    11    6    7 1
    12    6   26 1
    13    7   12 ar
    14    7    8 ar
    15    8    9 ar
    16    8   27 1
    17    9   10 ar
    18    9   28 1
    19   10   11 ar
    20   10   22 1
    21   11   12 ar
    22   11   29 1
    23   12   13 1
    24   13   14 1
    25   13   30 1
    26   13   31 1
    27   14   15 1
    28   14   32 1
    29   14   33 1
    30   15   16 am
    31   16   17 2
    32   16   18 1
    33   18   19 1
    34   18   20 1
    35   18   21 1
    36   22   34 1
@<TRIPOS>MOLECULE
CHEMBL91452__1
   34    36     0     0     0
SMALL
USER_CHARGES

@<TRIPOS>ATOM
      1 C1         -0.0163    1.3513    0.0095 C.2       1 <0>        -0.1580
      2 C2          1.1833    2.0380    0.0017 C.2       1 <0>        -0.1320
      3 C3          2.3426    1.3358   -0.0131 C.2       1 <0>        -0.1664
      4 S1          1.7535   -0.3495   -0.0166 S.3       1 <0>         0.0506
      5 C4          0.0021   -0.0041    0.0020 C.2       1 <0>        -0.1676
      6 C5          3.7608    1.8454   -0.0244 C.3       1 <0>         0.2788
      7 C6          4.3284    1.7807    1.3716 C.ar      1 <0>        -0.1036
      8 C7          3.8466    2.6860    2.3081 C.ar      1 <0>        -0.0796
      9 C8          4.3171    2.6720    3.6039 C.ar      1 <0>        -0.1426
     10 C9          5.2796    1.7439    3.9749 C.ar      1 <0>         0.1190
     11 C10         5.7620    0.8449    3.0398 C.ar      1 <0>        -0.1437
     12 C11         5.2910    0.8646    1.7333 C.ar      1 <0>        -0.0466
     13 C12         5.8818   -0.1255    0.7643 C.3       1 <0>        -0.0992
     14 C13         4.9672   -0.3157   -0.4446 C.3       1 <0>         0.0906
     15 N1          4.5697    1.0178   -0.9256 N.am      1 <0>        -0.5844
     16 C14         4.9348    1.4606   -2.1450 C.2       1 <0>         0.4928
     17 O1          4.5943    2.5637   -2.5167 O.2       1 <0>        -0.4670
     18 C15         5.7663    0.5850   -3.0467 C.3       1 <0>         0.4545
     19 F1          6.0161    1.2569   -4.2481 F         1 <0>        -0.1478
     20 F2          6.9800    0.2873   -2.4178 F         1 <0>        -0.1638
     21 F3          5.0748   -0.6020   -3.3112 F         1 <0>        -0.1630
     22 O2          5.7469    1.7182    5.2508 O.3       1 <0>        -0.4977
     23 H1         -0.9542    1.8866    0.0258 H         1 <0>         0.1374
     24 H2          1.1967    3.1179    0.0070 H         1 <0>         0.1363
     25 H3         -0.8275   -0.6955    0.0065 H         1 <0>         0.1874
     26 H4          3.7722    2.8783   -0.3723 H         1 <0>         0.1335
     27 H5          3.0969    3.4075    2.0187 H         1 <0>         0.1309
     28 H6          3.9387    3.3800    4.3263 H         1 <0>         0.1345
     29 H7          6.5107    0.1220    3.3283 H         1 <0>         0.1335
     30 H8          6.8518    0.2389    0.4262 H         1 <0>         0.0938
     31 H9          6.0151   -1.0834    1.2672 H         1 <0>         0.1012
     32 H10         5.5020   -0.8473   -1.2316 H         1 <0>         0.1011
     33 H11         4.0824   -0.8812   -0.1522 H         1 <0>         0.0926
     34 H12         5.2458    1.1394    5.8416 H         1 <0>         0.3942
@<TRIPOS>BOND
     1    1    5 2
     2    1    2 1
     3    1   23 1
     4    2    3 2
     5    2   24 1
     6    3    4 1
     7    3    6 1
     8    4    5 1
     9    5   25 1
    10    6   15 1
    11    6    7 1
    12    6   26 1
    13    7   12 ar
    14    7    8 ar
    15    8    9 ar
    16    8   27 1
    17    9   10 ar
    18    9   28 1
    19   10   11 ar
    20   10   22 1
    21   11   12 ar
    22   11   29 1
    23   12   13 1
    24   13   14 1
    25   13   30 1
    26   13   31 1
    27   14   15 1
    28   14   32 1
    29   14   33 1
    30   15   16 am
    31   16   17 2
    32   16   18 1
    33   18   19 1
    34   18   20 1
    35   18   21 1
    36   22   34 1
@<TRIPOS>MOLECULE
CHEMBL1087545
   71    76     0     0     0
SMALL
USER_CHARGES

@<TRIPOS>ATOM
      1 C1         -0.0012    1.1353    0.2629 C.ar      1 <0>        -0.0570
      2 C2          1.1489    1.9002    0.2386 C.ar      1 <0>        -0.1386
      3 C3          2.3891    1.2836    0.1581 C.ar      1 <0>         0.1193
      4 C4          2.4708   -0.1002    0.1021 C.ar      1 <0>        -0.1975
      5 C5          1.3178   -0.8606    0.1266 C.ar      1 <0>        -0.0636
      6 C6          0.0830   -0.2437    0.2069 C.ar      1 <0>        -0.1306
      7 C7         -1.1732   -1.0757    0.2340 C.3       1 <0>         0.1891
      8 H1         -2.0286   -0.4428   -0.0023 H         1 <0>         0.1334
      9 C8         -1.3524   -1.6588    1.6090 C.2       1 <0>        -0.1099
     10 C9         -0.8157   -2.8670    1.8981 C.2       1 <0>        -0.0388
     11 C10        -1.0147   -3.4614    3.2654 C.3       1 <0>        -0.1220
     12 C11        -0.1586   -2.7299    4.2976 C.3       1 <0>         0.0757
     13 O1         -0.2390   -1.3208    4.1287 O.3       1 <0>        -0.3251
     14 C12        -1.4659   -0.7789    3.9181 C.ar      1 <0>         0.1314
     15 C13        -2.0698   -0.9212    2.6574 C.ar      1 <0>        -0.0820
     16 C14        -3.3273   -0.3679    2.4218 C.ar      1 <0>        -0.0748
     17 C15        -3.9743    0.3152    3.4309 C.ar      1 <0>        -0.1478
     18 C16        -3.3772    0.4525    4.6777 C.ar      1 <0>         0.1316
     19 C17        -2.1241   -0.0945    4.9208 C.ar      1 <0>        -0.1585
     20 O2         -4.0231    1.1261    5.6652 O.3       1 <0>        -0.4956
     21 C18        -0.0666   -3.5713    0.8490 C.ar      1 <0>        -0.1305
     22 C19         0.7845   -4.6340    1.1415 C.ar      1 <0>        -0.0559
     23 C20         1.4669   -5.2632    0.1206 C.ar      1 <0>        -0.1692
     24 C21         1.3074   -4.8397   -1.1933 C.ar      1 <0>         0.1492
     25 C22         0.4604   -3.7812   -1.4934 C.ar      1 <0>        -0.1743
     26 C23        -0.2298   -3.1446   -0.4812 C.ar      1 <0>         0.1493
     27 O3         -1.0717   -2.1135   -0.7416 O.3       1 <0>        -0.2944
     28 O4          1.9853   -5.4652   -2.1909 O.3       1 <0>        -0.4959
     29 O5          3.5219    2.0339    0.1336 O.3       1 <0>        -0.3272
     30 C24         4.7636    1.3316    0.0498 C.3       1 <0>         0.0234
     31 C25         5.9176    2.3360    0.0338 C.3       1 <0>        -0.0074
     32 N1          5.9543    3.0600    1.3115 N.4       1 <0>        -0.3672
     33 C26         6.8961    4.1896    1.1885 C.3       1 <0>        -0.0034
     34 C27         6.5079    5.2418    2.1969 C.3       1 <0>        -0.1502
     35 C28         7.3310    5.1118    3.4921 C.3       1 <0>        -0.1307
     36 C29         7.5187    3.6381    3.9054 C.3       1 <0>        -0.1385
     37 C30         6.2635    2.8248    3.7184 C.3       1 <0>        -0.1341
     38 C31         6.2953    2.1627    2.3250 C.3       1 <0>        -0.0399
     39 H2         -0.9666    1.6146    0.3301 H         1 <0>         0.1374
     40 H3          1.0826    2.9773    0.2820 H         1 <0>         0.1358
     41 H4          3.4351   -0.5825    0.0390 H         1 <0>         0.1275
     42 H5          1.3809   -1.9379    0.0831 H         1 <0>         0.1335
     43 H6         -2.0650   -3.3773    3.5447 H         1 <0>         0.0865
     44 H7         -0.7319   -4.5139    3.2446 H         1 <0>         0.0953
     45 H8         -0.5052   -2.9899    5.2977 H         1 <0>         0.0653
     46 H9          0.8794   -3.0440    4.1877 H         1 <0>         0.1014
     47 H10        -3.7932   -0.4733    1.4532 H         1 <0>         0.1361
     48 H11        -4.9485    0.7451    3.2508 H         1 <0>         0.1381
     49 H12        -1.6650    0.0155    5.8921 H         1 <0>         0.1386
     50 H13        -4.5899    0.5688    6.2159 H         1 <0>         0.3977
     51 H14         0.9101   -4.9638    2.1622 H         1 <0>         0.1359
     52 H15         2.1277   -6.0879    0.3435 H         1 <0>         0.1374
     53 H16         0.3416   -3.4566   -2.5166 H         1 <0>         0.1425
     54 H17         1.5107   -6.2122   -2.5807 H         1 <0>         0.4005
     55 H18         4.8672    0.6727    0.9119 H         1 <0>         0.0869
     56 H19         4.7849    0.7391   -0.8649 H         1 <0>         0.1102
     57 H20         6.8589    1.8056   -0.1104 H         1 <0>         0.1503
     58 H21         5.7713    3.0446   -0.7813 H         1 <0>         0.1448
     59 H22         7.9108    3.8454    1.3888 H         1 <0>         0.1336
     60 H23         6.8407    4.6063    0.1828 H         1 <0>         0.1349
     61 H24         6.6762    6.2284    1.7652 H         1 <0>         0.1089
     62 H25         5.4497    5.1340    2.4349 H         1 <0>         0.0823
     63 H26         8.3103    5.5649    3.3376 H         1 <0>         0.0805
     64 H27         6.8180    5.6429    4.2938 H         1 <0>         0.0817
     65 H28         8.3154    3.2013    3.3032 H         1 <0>         0.0691
     66 H29         7.8108    3.6002    4.9549 H         1 <0>         0.0865
     67 H30         6.2105    2.0540    4.4872 H         1 <0>         0.1089
     68 H31         5.3926    3.4761    3.7927 H         1 <0>         0.0876
     69 H32         5.5923    1.3298    2.3122 H         1 <0>         0.1278
     70 H33         7.2987    1.7805    2.1371 H         1 <0>         0.1287
     71 H34         5.0339    3.4275    1.5009 H         1 <0>         0.4260
@<TRIPOS>BOND
     1    1    6 ar
     2    1    2 ar
     3    1   39 1
     4    2    3 ar
     5    2   40 1
     6    3    4 ar
     7    3   29 1
     8    4    5 ar
     9    4   41 1
    10    5    6 ar
    11    5   42 1
    12    6    7 1
    13    7    8 1
    14    7   27 1
    15    7    9 1
    16    9   15 1
    17    9   10 2
    18   10   11 1
    19   10   21 1
    20   11   12 1
    21   11   43 1
    22   11   44 1
    23   12   13 1
    24   12   45 1
    25   12   46 1
    26   13   14 1
    27   14   19 ar
    28   14   15 ar
    29   15   16 ar
    30   16   17 ar
    31   16   47 1
    32   17   18 ar
    33   17   48 1
    34   18   19 ar
    35   18   20 1
    36   19   49 1
    37   20   50 1
    38   21   26 ar
    39   21   22 ar
    40   22   23 ar
    41   22   51 1
    42   23   24 ar
    43   23   52 1
    44   24   25 ar
    45   24   28 1
    46   25   26 ar
    47   25   53 1
    48   26   27 1
    49   28   54 1
    50   29   30 1
    51   30   31 1
    52   30   55 1
    53   30   56 1
    54   31   32 1
    55   31   57 1
    56   31   58 1
    57   32   38 1
    58   32   33 1
    59   32   71 1
    60   33   34 1
    61   33   59 1
    62   33   60 1
    63   34   35 1
    64   34   61 1
    65   34   62 1
    66   35   36 1
    67   35   63 1
    68   35   64 1
    69   36   37 1
    70   36   65 1
    71   36   66 1
    72   37   38 1
    73   37   67 1
    74   37   68 1
    75   38   69 1
    76   38   70 1
@<TRIPOS>MOLECULE
CHEMBL206680
   68    73     0     0     0
SMALL
USER_CHARGES

@<TRIPOS>ATOM
      1 C1          0.1629    1.0058    0.7215 C.ar      1 <0>        -0.0397
      2 C2          1.3120    1.7655    0.6174 C.ar      1 <0>        -0.1358
      3 C3          2.5256    1.1516    0.3437 C.ar      1 <0>         0.1256
      4 C4          2.5819   -0.2243    0.1752 C.ar      1 <0>        -0.2018
      5 C5          1.4300   -0.9796    0.2803 C.ar      1 <0>        -0.0671
      6 C6          0.2217   -0.3653    0.5532 C.ar      1 <0>        -0.1006
      7 C7         -1.0333   -1.1918    0.6678 C.3       1 <0>         0.1916
      8 C8         -2.0266   -0.7288   -0.3594 C.2       1 <0>        -0.1068
      9 C9         -3.3495   -0.8628   -0.1334 C.2       1 <0>        -0.0909
     10 C10        -4.3436   -0.4584   -1.1848 C.3       1 <0>         0.1109
     11 O1         -3.8340    0.6154   -1.9751 O.3       1 <0>        -0.3038
     12 C11        -2.5549    0.5264   -2.4208 C.ar      1 <0>         0.1524
     13 C12        -1.5954   -0.1297   -1.6313 C.ar      1 <0>        -0.1214
     14 C13        -0.2721   -0.2055   -2.0594 C.ar      1 <0>        -0.0685
     15 C14         0.0877    0.3537   -3.2686 C.ar      1 <0>        -0.1726
     16 C15        -0.8644    0.9877   -4.0569 C.ar      1 <0>         0.1496
     17 C16        -2.1840    1.0745   -3.6331 C.ar      1 <0>        -0.1695
     18 O2         -0.5020    1.5268   -5.2502 O.3       1 <0>        -0.4954
     19 C17        -3.7854   -1.3879    1.1696 C.ar      1 <0>        -0.1312
     20 C18        -5.1028   -1.7841    1.3905 C.ar      1 <0>        -0.0533
     21 C19        -5.4671   -2.2868    2.6226 C.ar      1 <0>        -0.1658
     22 C20        -4.5257   -2.3992    3.6386 C.ar      1 <0>         0.1529
     23 C21        -3.2125   -2.0010    3.4280 C.ar      1 <0>        -0.1674
     24 C22        -2.8371   -1.4881    2.2013 C.ar      1 <0>         0.1499
     25 O3         -1.5697   -1.0532    1.9838 O.3       1 <0>        -0.2994
     26 O4         -4.8928   -2.9026    4.8460 O.3       1 <0>        -0.4929
     27 O5          3.6573    1.8969    0.2403 O.3       1 <0>        -0.3259
     28 C23         4.8709    1.1977   -0.0433 C.3       1 <0>         0.0230
     29 C24         6.0280    2.1956   -0.1218 C.3       1 <0>        -0.0083
     30 N1          6.2245    2.8219    1.1924 N.4       1 <0>        -0.3674
     31 C25         7.1607    3.9529    1.0425 C.3       1 <0>        -0.0033
     32 C26         6.9081    4.9286    2.1644 C.3       1 <0>        -0.1503
     33 C27         7.8759    4.6982    3.3401 C.3       1 <0>        -0.1309
     34 C28         8.0907    3.1968    3.6187 C.3       1 <0>        -0.1387
     35 C29         6.8111    2.4059    3.5219 C.3       1 <0>        -0.1345
     36 C30         6.6700    1.8497    2.0896 C.3       1 <0>        -0.0396
     37 H1         -0.7814    1.4827    0.9390 H         1 <0>         0.1351
     38 H2          1.2655    2.8365    0.7486 H         1 <0>         0.1367
     39 H3          3.5254   -0.7045   -0.0383 H         1 <0>         0.1332
     40 H4          1.4733   -2.0507    0.1493 H         1 <0>         0.1376
     41 H5         -0.7916   -2.2391    0.4866 H         1 <0>         0.0912
     42 H6         -4.5510   -1.3120   -1.8301 H         1 <0>         0.0820
     43 H7         -5.2680   -0.1414   -0.7019 H         1 <0>         0.1237
     44 H8          0.4688   -0.6990   -1.4478 H         1 <0>         0.1434
     45 H9          1.1130    0.2979   -3.6035 H         1 <0>         0.1302
     46 H10        -2.9191    1.5690   -4.2507 H         1 <0>         0.1433
     47 H11        -0.5759    0.9162   -5.9964 H         1 <0>         0.3981
     48 H12        -5.8351   -1.6978    0.6014 H         1 <0>         0.1379
     49 H13        -6.4876   -2.5937    2.7982 H         1 <0>         0.1399
     50 H14        -2.4858   -2.0917    4.2218 H         1 <0>         0.1426
     51 H15        -4.7965   -3.8621    4.9178 H         1 <0>         0.3990
     52 H16         5.0674    0.4750    0.7487 H         1 <0>         0.0881
     53 H17         4.7757    0.6761   -0.9956 H         1 <0>         0.1112
     54 H18         6.9387    1.6735   -0.4152 H         1 <0>         0.1506
     55 H19         5.7958    2.9638   -0.8594 H         1 <0>         0.1451
     56 H20         8.1871    3.5897    1.0955 H         1 <0>         0.1338
     57 H21         6.9932    4.4439    0.0838 H         1 <0>         0.1351
     58 H22         7.0380    5.9439    1.7897 H         1 <0>         0.1090
     59 H23         5.8838    4.8086    2.5172 H         1 <0>         0.0824
     60 H24         8.8363    5.1568    3.1047 H         1 <0>         0.0806
     61 H25         7.4679    5.1704    4.2338 H         1 <0>         0.0817
     62 H26         8.8050    2.8023    2.8960 H         1 <0>         0.0692
     63 H27         8.5036    3.0791    4.6206 H         1 <0>         0.0866
     64 H28         6.8383    1.5801    4.2328 H         1 <0>         0.1090
     65 H29         5.9640    3.0541    3.7465 H         1 <0>         0.0876
     66 H30         5.9590    1.0235    2.0988 H         1 <0>         0.1278
     67 H31         7.6389    1.4777    1.7568 H         1 <0>         0.1288
     68 H32         5.3378    3.1787    1.5158 H         1 <0>         0.4261
@<TRIPOS>BOND
     1    1    6 ar
     2    1    2 ar
     3    1   37 1
     4    2    3 ar
     5    2   38 1
     6    3    4 ar
     7    3   27 1
     8    4    5 ar
     9    4   39 1
    10    5    6 ar
    11    5   40 1
    12    6    7 1
    13    7   25 1
    14    7    8 1
    15    7   41 1
    16    8   13 1
    17    8    9 2
    18    9   10 1
    19    9   19 1
    20   10   11 1
    21   10   42 1
    22   10   43 1
    23   11   12 1
    24   12   17 ar
    25   12   13 ar
    26   13   14 ar
    27   14   15 ar
    28   14   44 1
    29   15   16 ar
    30   15   45 1
    31   16   17 ar
    32   16   18 1
    33   17   46 1
    34   18   47 1
    35   19   24 ar
    36   19   20 ar
    37   20   21 ar
    38   20   48 1
    39   21   22 ar
    40   21   49 1
    41   22   23 ar
    42   22   26 1
    43   23   24 ar
    44   23   50 1
    45   24   25 1
    46   26   51 1
    47   27   28 1
    48   28   29 1
    49   28   52 1
    50   28   53 1
    51   29   30 1
    52   29   54 1
    53   29   55 1
    54   30   36 1
    55   30   31 1
    56   30   68 1
    57   31   32 1
    58   31   56 1
    59   31   57 1
    60   32   33 1
    61   32   58 1
    62   32   59 1
    63   33   34 1
    64   33   60 1
    65   33   61 1
    66   34   35 1
    67   34   62 1
    68   34   63 1
    69   35   36 1
    70   35   64 1
    71   35   65 1
    72   36   66 1
    73   36   67 1
@<TRIPOS>MOLECULE
CHEMBL206680__1
   68    73     0     0     0
SMALL
USER_CHARGES

@<TRIPOS>ATOM
      1 C1         -0.0167    1.3784    0.0096 C.ar      1 <0>        -0.0615
      2 C2          1.1695    2.0865    0.0021 C.ar      1 <0>        -0.1368
      3 C3          2.3802    1.4093   -0.0131 C.ar      1 <0>         0.1204
      4 C4          2.3963    0.0221   -0.0206 C.ar      1 <0>        -0.1973
      5 C5          1.2074   -0.6814   -0.0130 C.ar      1 <0>        -0.0658
      6 C6          0.0021   -0.0041    0.0020 C.ar      1 <0>        -0.1323
      7 C7         -1.2934   -0.7740    0.0107 C.3       1 <0>         0.1888
      8 C8         -1.6211   -1.2076   -1.3895 C.2       1 <0>        -0.0924
      9 C9         -1.1608   -2.3844   -1.8611 C.2       1 <0>        -0.0988
     10 C10        -1.4344   -2.7918   -3.2812 C.3       1 <0>         0.1133
     11 O1         -2.6753   -2.2496   -3.7320 O.3       1 <0>        -0.3025
     12 C11        -2.9334   -0.9437   -3.4661 C.ar      1 <0>         0.1533
     13 C12        -2.4367   -0.3713   -2.2828 C.ar      1 <0>        -0.1266
     14 C13        -2.7159    0.9592   -1.9798 C.ar      1 <0>        -0.0605
     15 C14        -3.4695    1.7153   -2.8542 C.ar      1 <0>        -0.1687
     16 C15        -3.9465    1.1541   -4.0321 C.ar      1 <0>         0.1529
     17 C16        -3.6793   -0.1741   -4.3373 C.ar      1 <0>        -0.1671
     18 O2         -4.6797    1.9095   -4.8911 O.3       1 <0>        -0.4922
     19 C17        -0.4124   -3.2588   -0.9453 C.ar      1 <0>        -0.1280
     20 C18         0.2995   -4.3619   -1.4118 C.ar      1 <0>        -0.0554
     21 C19         1.0021   -5.1474   -0.5213 C.ar      1 <0>        -0.1676
     22 C20         1.0017   -4.8403    0.8340 C.ar      1 <0>         0.1499
     23 C21         0.2892   -3.7469    1.3073 C.ar      1 <0>        -0.1730
     24 C22        -0.4246   -2.9570    0.4267 C.ar      1 <0>         0.1488
     25 O3         -1.1619   -1.9068    0.8699 O.3       1 <0>        -0.2910
     26 O4          1.7030   -5.6157    1.7017 O.3       1 <0>        -0.4902
     27 O5          3.5484    2.1036   -0.0209 O.3       1 <0>        -0.3255
     28 C23         4.7565    1.3405   -0.0365 C.3       1 <0>         0.0248
     29 C24         5.9580    2.2878   -0.0434 C.3       1 <0>        -0.0002
     30 N1          5.9923    3.0443    1.2153 N.4       1 <0>        -0.3789
     31 C25         6.2683    2.1506    2.3168 C.3       1 <0>        -0.0248
     32 C26         5.4854    2.5590    3.5765 C.3       1 <0>        -0.1441
     33 C27         5.4620    4.0848    3.7932 C.3       1 <0>        -0.1425
     34 C28         6.7909    4.7439    3.5314 C.3       1 <0>        -0.1340
     35 C29         6.8567    5.1866    2.0497 C.3       1 <0>        -0.1572
     36 C30         7.0744    4.0432    1.1686 C.3       1 <0>        -0.0022
     37 H1         -0.9594    1.9052    0.0259 H         1 <0>         0.1386
     38 H2          1.1543    3.1664    0.0076 H         1 <0>         0.1378
     39 H3          3.3375   -0.5074   -0.0328 H         1 <0>         0.1287
     40 H4          1.2194   -1.7613   -0.0189 H         1 <0>         0.1340
     41 H5         -2.0909   -0.1311    0.3832 H         1 <0>         0.1360
     42 H6         -0.6301   -2.4275   -3.9204 H         1 <0>         0.0787
     43 H7         -1.4749   -3.8794   -3.3411 H         1 <0>         0.1223
     44 H8         -2.3447    1.3969   -1.0648 H         1 <0>         0.1305
     45 H9         -3.6890    2.7470   -2.6223 H         1 <0>         0.1378
     46 H10        -4.0534   -0.6042   -5.2546 H         1 <0>         0.1448
     47 H11        -4.1523    2.3730   -5.5559 H         1 <0>         0.3980
     48 H12         0.3011   -4.6010   -2.4650 H         1 <0>         0.1382
     49 H13         1.5541   -6.0041   -0.8788 H         1 <0>         0.1396
     50 H14         0.2931   -3.5140    2.3619 H         1 <0>         0.1434
     51 H15         2.6161   -5.3276    1.8370 H         1 <0>         0.3950
     52 H16         4.7979    0.7076    0.8500 H         1 <0>         0.0868
     53 H17         4.7806    0.7165   -0.9299 H         1 <0>         0.1102
     54 H18         6.8762    1.7093   -0.1448 H         1 <0>         0.1510
     55 H19         5.8702    2.9798   -0.8810 H         1 <0>         0.1436
     56 H20         5.9853    1.1369    2.0335 H         1 <0>         0.1257
     57 H21         7.3357    2.1740    2.5366 H         1 <0>         0.1311
     58 H22         4.4600    2.2007    3.4853 H         1 <0>         0.0883
     59 H23         5.9450    2.0872    4.4450 H         1 <0>         0.1071
     60 H24         4.7177    4.5213    3.1271 H         1 <0>         0.0657
     61 H25         5.1678    4.2875    4.8229 H         1 <0>         0.0919
     62 H26         6.8985    5.6156    4.1770 H         1 <0>         0.0908
     63 H27         7.5947    4.0368    3.7362 H         1 <0>         0.0778
     64 H28         5.9192    5.6727    1.7798 H         1 <0>         0.0876
     65 H29         7.6750    5.8956    1.9243 H         1 <0>         0.1180
     66 H30         8.0086    3.5582    1.4517 H         1 <0>         0.1285
     67 H31         7.1699    4.4055    0.1450 H         1 <0>         0.1271
     68 H32         5.1069    3.5056    1.3614 H         1 <0>         0.4301
@<TRIPOS>BOND
     1    1    6 ar
     2    1    2 ar
     3    1   37 1
     4    2    3 ar
     5    2   38 1
     6    3    4 ar
     7    3   27 1
     8    4    5 ar
     9    4   39 1
    10    5    6 ar
    11    5   40 1
    12    6    7 1
    13    7   25 1
    14    7    8 1
    15    7   41 1
    16    8   13 1
    17    8    9 2
    18    9   10 1
    19    9   19 1
    20   10   11 1
    21   10   42 1
    22   10   43 1
    23   11   12 1
    24   12   17 ar
    25   12   13 ar
    26   13   14 ar
    27   14   15 ar
    28   14   44 1
    29   15   16 ar
    30   15   45 1
    31   16   17 ar
    32   16   18 1
    33   17   46 1
    34   18   47 1
    35   19   24 ar
    36   19   20 ar
    37   20   21 ar
    38   20   48 1
    39   21   22 ar
    40   21   49 1
    41   22   23 ar
    42   22   26 1
    43   23   24 ar
    44   23   50 1
    45   24   25 1
    46   26   51 1
    47   27   28 1
    48   28   29 1
    49   28   52 1
    50   28   53 1
    51   29   30 1
    52   29   54 1
    53   29   55 1
    54   30   36 1
    55   30   31 1
    56   30   68 1
    57   31   32 1
    58   31   56 1
    59   31   57 1
    60   32   33 1
    61   32   58 1
    62   32   59 1
    63   33   34 1
    64   33   60 1
    65   33   61 1
    66   34   35 1
    67   34   62 1
    68   34   63 1
    69   35   36 1
    70   35   64 1
    71   35   65 1
    72   36   66 1
    73   36   67 1
@<TRIPOS>MOLECULE
CHEMBL370282
   60    65     0     0     0
SMALL
USER_CHARGES

@<TRIPOS>ATOM
      1 C1         -0.0199    1.4364   -0.3002 C.ar      1 <0>        -0.0561
      2 C2          1.1735    2.1319   -0.2826 C.ar      1 <0>        -0.1509
      3 C3          2.3740    1.4447   -0.1755 C.ar      1 <0>         0.1462
      4 C4          2.3725    0.0603   -0.0864 C.ar      1 <0>        -0.2107
      5 C5          1.1763   -0.6306   -0.1044 C.ar      1 <0>        -0.0628
      6 C6         -0.0187    0.0566   -0.2112 C.ar      1 <0>        -0.1598
      7 C7         -1.3222   -0.6996   -0.2302 C.3       1 <0>         0.1525
      8 N1         -1.6730   -1.0333   -1.6129 N.pl3     1 <0>        -0.4639
      9 C8         -2.4217   -0.2324   -2.4485 C.ar      1 <0>         0.1342
     10 C9         -3.0235    1.0107   -2.2807 C.ar      1 <0>        -0.1163
     11 C10        -3.7268    1.5837   -3.3169 C.ar      1 <0>        -0.1058
     12 C11        -3.8443    0.9290   -4.5398 C.ar      1 <0>         0.0792
     13 C12        -3.2551   -0.3053   -4.7267 C.ar      1 <0>        -0.0889
     14 C13        -2.5380   -0.8965   -3.6829 C.ar      1 <0>        -0.0434
     15 C14        -1.8098   -2.1494   -3.5340 C.2       1 <0>        -0.1798
     16 C15        -1.2888   -2.2107   -2.2739 C.2       1 <0>         0.0995
     17 C16        -0.5068   -3.4162   -1.9404 C.ar      1 <0>        -0.0719
     18 C17         0.1283   -3.7175   -0.7131 C.ar      1 <0>        -0.0702
     19 C18         0.8189   -4.8781   -0.5553 C.ar      1 <0>        -0.1430
     20 C19         0.9254   -5.8059   -1.5886 C.ar      1 <0>         0.1355
     21 C20         0.3154   -5.5432   -2.8050 C.ar      1 <0>        -0.0992
     22 C21        -0.3862   -4.3675   -2.9702 C.ar      1 <0>        -0.0866
     23 S1         -1.2999   -3.6576   -4.3151 S.3       1 <0>         0.1113
     24 O1          1.6220   -6.9588   -1.4058 O.3       1 <0>        -0.4913
     25 O2         -4.5424    1.5071   -5.5537 O.3       1 <0>        -0.4951
     26 O3          3.5494    2.1266   -0.1585 O.3       1 <0>        -0.2954
     27 C22         4.7461    1.3538   -0.0460 C.3       1 <0>         0.0654
     28 C23         5.9580    2.2878   -0.0434 C.3       1 <0>         0.0543
     29 N2          5.9254    3.1288    1.1606 N.3       1 <0>        -0.5309
     30 C24         6.7699    4.3205    0.9938 C.3       1 <0>         0.0184
     31 C25         6.6602    5.1963    2.2448 C.3       1 <0>         0.0630
     32 O4          7.0295    4.4274    3.3927 O.3       1 <0>        -0.3848
     33 C26         6.2270    3.2595    3.5859 C.3       1 <0>         0.0639
     34 C27         6.3323    2.3641    2.3485 C.3       1 <0>         0.0139
     35 H1         -0.9549    1.9711   -0.3790 H         1 <0>         0.1286
     36 H2          1.1721    3.2096   -0.3525 H         1 <0>         0.1339
     37 H3          3.3057   -0.4770   -0.0033 H         1 <0>         0.1281
     38 H4          1.1746   -1.7084   -0.0350 H         1 <0>         0.1251
     39 H5         -1.2187   -1.6166    0.3499 H         1 <0>         0.0946
     40 H6         -2.1073   -0.0811    0.2048 H         1 <0>         0.1003
     41 H7         -2.9393    1.5272   -1.3359 H         1 <0>         0.1286
     42 H8         -4.1914    2.5489   -3.1795 H         1 <0>         0.1372
     43 H9         -3.3478   -0.8121   -5.6759 H         1 <0>         0.1324
     44 H10         0.0644   -3.0181    0.1074 H         1 <0>         0.1282
     45 H11         1.2954   -5.0849    0.3916 H         1 <0>         0.1364
     46 H12         0.3892   -6.2525   -3.6162 H         1 <0>         0.1442
     47 H13         1.0881   -7.6918   -1.0700 H         1 <0>         0.3970
     48 H14        -4.0065    2.0697   -6.1294 H         1 <0>         0.3886
     49 H15         4.7247    0.7839    0.8828 H         1 <0>         0.0635
     50 H16         4.8171    0.6689   -0.8910 H         1 <0>         0.0678
     51 H17         6.8731    1.6956   -0.0484 H         1 <0>         0.0626
     52 H18         5.9303    2.9213   -0.9300 H         1 <0>         0.0890
     53 H19         7.8068    4.0151    0.8531 H         1 <0>         0.0441
     54 H20         6.4349    4.8851    0.1237 H         1 <0>         0.0888
     55 H21         7.3284    6.0522    2.1497 H         1 <0>         0.0998
     56 H22         5.6337    5.5457    2.3556 H         1 <0>         0.0614
     57 H23         6.5819    2.7146    4.4607 H         1 <0>         0.0990
     58 H24         5.1879    3.5525    3.7357 H         1 <0>         0.0608
     59 H25         5.6778    1.5006    2.4673 H         1 <0>         0.0844
     60 H26         7.3622    2.0274    2.2295 H         1 <0>         0.0450
@<TRIPOS>BOND
     1    1    6 ar
     2    1    2 ar
     3    1   35 1
     4    2    3 ar
     5    2   36 1
     6    3    4 ar
     7    3   26 1
     8    4    5 ar
     9    4   37 1
    10    5    6 ar
    11    5   38 1
    12    6    7 1
    13    7    8 1
    14    7   39 1
    15    7   40 1
    16    8   16 1
    17    8    9 1
    18    9   14 ar
    19    9   10 ar
    20   10   11 ar
    21   10   41 1
    22   11   12 ar
    23   11   42 1
    24   12   13 ar
    25   12   25 1
    26   13   14 ar
    27   13   43 1
    28   14   15 1
    29   15   23 1
    30   15   16 2
    31   16   17 1
    32   17   22 ar
    33   17   18 ar
    34   18   19 ar
    35   18   44 1
    36   19   20 ar
    37   19   45 1
    38   20   21 ar
    39   20   24 1
    40   21   22 ar
    41   21   46 1
    42   22   23 1
    43   24   47 1
    44   25   48 1
    45   26   27 1
    46   27   28 1
    47   27   49 1
    48   27   50 1
    49   28   29 1
    50   28   51 1
    51   28   52 1
    52   29   34 1
    53   29   30 1
    54   30   31 1
    55   30   53 1
    56   30   54 1
    57   31   32 1
    58   31   55 1
    59   31   56 1
    60   32   33 1
    61   33   34 1
    62   33   57 1
    63   33   58 1
    64   34   59 1
    65   34   60 1
@<TRIPOS>MOLECULE
CHEMBL370282__1
   61    66     0     0     0
SMALL
USER_CHARGES

@<TRIPOS>ATOM
      1 C1          0.0455    1.0387    0.0457 C.ar      1 <0>        -0.0551
      2 C2          1.1889    1.8128    0.0031 C.ar      1 <0>        -0.1394
      3 C3          2.4366    1.2068    0.0262 C.ar      1 <0>         0.1222
      4 C4          2.5327   -0.1756    0.0922 C.ar      1 <0>        -0.2002
      5 C5          1.3863   -0.9453    0.1346 C.ar      1 <0>        -0.0631
      6 C6          0.1439   -0.3389    0.1114 C.ar      1 <0>        -0.1342
      7 C7         -1.1051   -1.1809    0.1582 C.3       1 <0>         0.1476
      8 N1         -1.5169   -1.5200   -1.2062 N.pl3     1 <0>        -0.4681
      9 C8         -2.3668   -0.7610   -1.9818 C.ar      1 <0>         0.1321
     10 C9         -3.0386    0.4366   -1.7573 C.ar      1 <0>        -0.1201
     11 C10        -3.8405    0.9739   -2.7396 C.ar      1 <0>        -0.1035
     12 C11        -3.9888    0.3283   -3.9640 C.ar      1 <0>         0.0830
     13 C12        -3.3313   -0.8610   -4.2066 C.ar      1 <0>        -0.0876
     14 C13        -2.5140   -1.4157   -3.2179 C.ar      1 <0>        -0.0425
     15 C14        -1.6963   -2.6184   -3.1340 C.2       1 <0>        -0.1757
     16 C15        -1.0963   -2.6604   -1.9088 C.2       1 <0>         0.0949
     17 C16        -0.2170   -3.8145   -1.6431 C.ar      1 <0>        -0.0742
     18 C17         0.5107   -4.0879   -0.4614 C.ar      1 <0>        -0.0741
     19 C18         1.2853   -5.2012   -0.3649 C.ar      1 <0>        -0.1431
     20 C19         1.3899   -6.1065   -1.4181 C.ar      1 <0>         0.1375
     21 C20         0.6905   -5.8702   -2.5910 C.ar      1 <0>        -0.0970
     22 C21        -0.0965   -4.7425   -2.6940 C.ar      1 <0>        -0.0868
     23 S1         -1.1359   -4.0788   -3.9694 S.3       1 <0>         0.1204
     24 O1          2.1715   -7.2120   -1.2968 O.3       1 <0>        -0.4917
     25 O2         -4.7844    0.8708   -4.9243 O.3       1 <0>        -0.4932
     26 O3          3.5629    1.9661   -0.0160 O.3       1 <0>        -0.3280
     27 C22         4.8130    1.2744    0.0113 C.3       1 <0>         0.0247
     28 C23         5.9580    2.2878   -0.0434 C.3       1 <0>         0.0002
     29 N2          5.9254    3.1288    1.1606 N.4       1 <0>        -0.3869
     30 C24         6.9322    4.1926    1.0426 C.3       1 <0>        -0.0438
     31 C25         6.8961    5.0675    2.2981 C.3       1 <0>         0.0355
     32 O4          7.1277    4.2504    3.4490 O.3       1 <0>        -0.3555
     33 C26         6.1858    3.1839    3.5945 C.3       1 <0>         0.0374
     34 C27         6.2205    2.3055    2.3414 C.3       1 <0>        -0.0502
     35 H1         -0.9261    1.5102    0.0322 H         1 <0>         0.1367
     36 H2          1.1115    2.8887   -0.0486 H         1 <0>         0.1366
     37 H3          3.5029   -0.6498    0.1100 H         1 <0>         0.1301
     38 H4          1.4605   -2.0215    0.1860 H         1 <0>         0.1334
     39 H5         -0.9056   -2.0961    0.7156 H         1 <0>         0.0983
     40 H6         -1.9016   -0.6224    0.6499 H         1 <0>         0.1039
     41 H7         -2.9313    0.9455   -0.8108 H         1 <0>         0.1272
     42 H8         -4.3590    1.9038   -2.5584 H         1 <0>         0.1386
     43 H9         -3.4480   -1.3609   -5.1568 H         1 <0>         0.1347
     44 H10         0.4507   -3.4048    0.3730 H         1 <0>         0.1251
     45 H11         1.8315   -5.3873    0.5481 H         1 <0>         0.1361
     46 H12         0.7615   -6.5626   -3.4169 H         1 <0>         0.1461
     47 H13         1.7091   -7.9836   -0.9418 H         1 <0>         0.3999
     48 H14        -4.3233    1.4754   -5.5217 H         1 <0>         0.3902
     49 H15         4.8864    0.6926    0.9301 H         1 <0>         0.0872
     50 H16         4.8776    0.6065   -0.8478 H         1 <0>         0.1116
     51 H17         6.9097    1.7586   -0.0914 H         1 <0>         0.1516
     52 H18         5.8461    2.9150   -0.9278 H         1 <0>         0.1451
     53 H19         7.9215    3.7470    0.9381 H         1 <0>         0.1406
     54 H20         6.7142    4.8040    0.1670 H         1 <0>         0.1443
     55 H21         7.6711    5.8311    2.2320 H         1 <0>         0.1437
     56 H22         5.9198    5.5449    2.3812 H         1 <0>         0.0819
     57 H23         6.4466    2.5843    4.4667 H         1 <0>         0.1429
     58 H24         5.1851    3.5969    3.7219 H         1 <0>         0.0816
     59 H25         5.4741    1.5160    2.4300 H         1 <0>         0.1394
     60 H26         7.2100    1.8606    2.2365 H         1 <0>         0.1417
     61 H27         5.0098    3.5412    1.2583 H         1 <0>         0.4299
@<TRIPOS>BOND
     1    1    6 ar
     2    1    2 ar
     3    1   35 1
     4    2    3 ar
     5    2   36 1
     6    3    4 ar
     7    3   26 1
     8    4    5 ar
     9    4   37 1
    10    5    6 ar
    11    5   38 1
    12    6    7 1
    13    7    8 1
    14    7   39 1
    15    7   40 1
    16    8   16 1
    17    8    9 1
    18    9   14 ar
    19    9   10 ar
    20   10   11 ar
    21   10   41 1
    22   11   12 ar
    23   11   42 1
    24   12   13 ar
    25   12   25 1
    26   13   14 ar
    27   13   43 1
    28   14   15 1
    29   15   23 1
    30   15   16 2
    31   16   17 1
    32   17   22 ar
    33   17   18 ar
    34   18   19 ar
    35   18   44 1
    36   19   20 ar
    37   19   45 1
    38   20   21 ar
    39   20   24 1
    40   21   22 ar
    41   21   46 1
    42   22   23 1
    43   24   47 1
    44   25   48 1
    45   26   27 1
    46   27   28 1
    47   27   49 1
    48   27   50 1
    49   28   29 1
    50   28   51 1
    51   28   52 1
    52   29   34 1
    53   29   30 1
    54   29   61 1
    55   30   31 1
    56   30   53 1
    57   30   54 1
    58   31   32 1
    59   31   55 1
    60   31   56 1
    61   32   33 1
    62   33   34 1
    63   33   57 1
    64   33   58 1
    65   34   59 1
    66   34   60 1
@<TRIPOS>MOLECULE
CHEMBL178857
   62    67     0     0     0
SMALL
USER_CHARGES

@<TRIPOS>ATOM
      1 C1         -0.6413    0.4377    0.7036 C.2       1 <0>        -0.2222
      2 C2          0.6351    0.9597    0.4419 C.2       1 <0>        -0.1106
      3 C3          1.5177   -0.0728    0.5816 C.2       1 <0>        -0.0863
      4 O1          0.8183   -1.1778    0.9135 O.3       1 <0>        -0.1620
      5 C4         -0.4839   -0.8739    0.9881 C.2       1 <0>        -0.0081
      6 C5          2.9711    0.0056    0.4019 C.2       1 <0>         0.6064
      7 O2          3.5054    1.0851    0.2281 O.2       1 <0>        -0.5162
      8 N1          3.7150   -1.1180    0.4291 N.am      1 <0>        -0.6057
      9 C6          3.0730   -2.4394    0.4684 C.3       1 <0>         0.0804
     10 C7          3.5983   -3.2746   -0.7058 C.3       1 <0>         0.1039
     11 N2          5.0660   -3.2002   -0.7154 N.pl3     1 <0>        -0.6202
     12 C8          5.7080   -1.8788   -0.7547 C.3       1 <0>         0.1030
     13 C9          5.1827   -1.0438    0.4138 C.3       1 <0>         0.0966
     14 C10         5.8338   -4.3598   -0.6874 C.ar      1 <0>         0.2564
     15 C11         5.2224   -5.6015   -0.8373 C.ar      1 <0>        -0.2134
     16 C12         5.9793   -6.7505   -0.8104 C.ar      1 <0>        -0.0042
     17 C13         7.3635   -6.6699   -0.6323 C.ar      1 <0>        -0.2262
     18 C14         7.9745   -5.4216   -0.4821 C.ar      1 <0>        -0.0078
     19 C15         7.2127   -4.2759   -0.5152 C.ar      1 <0>        -0.2128
     20 C16         8.1784   -7.9006   -0.6026 C.2       1 <0>         0.4655
     21 O3          7.6384   -8.9904   -0.6704 O.2       1 <0>        -0.4482
     22 C17         9.6345   -7.8113   -0.4916 C.2       1 <0>        -0.1541
     23 C18        10.4796   -7.7324   -1.6857 C.ar      1 <0>        -0.0710
     24 C19        10.0783   -7.7290   -3.0408 C.ar      1 <0>        -0.0571
     25 C20        11.0053   -7.6499   -4.0465 C.ar      1 <0>        -0.1382
     26 C21        12.3668   -7.5703   -3.7673 C.ar      1 <0>         0.1340
     27 C22        12.7907   -7.5711   -2.4482 C.ar      1 <0>        -0.1021
     28 C23        11.8617   -7.6510   -1.4321 C.ar      1 <0>        -0.1019
     29 S1         11.9882   -7.6810    0.3376 S.3       1 <0>         0.0846
     30 C24        10.2583   -7.7929    0.7490 C.2       1 <0>        -0.0550
     31 C25         9.6382   -7.8530    2.0852 C.ar      1 <0>        -0.0388
     32 C26         8.6282   -8.7832    2.3482 C.ar      1 <0>        -0.0717
     33 C27         8.0518   -8.8358    3.5981 C.ar      1 <0>        -0.1392
     34 C28         8.4723   -7.9658    4.5967 C.ar      1 <0>         0.1239
     35 C29         9.4755   -7.0393    4.3397 C.ar      1 <0>        -0.1468
     36 C30        10.0623   -6.9839    3.0948 C.ar      1 <0>        -0.0738
     37 O4          7.9008   -8.0209    5.8273 O.3       1 <0>        -0.4975
     38 O5         13.2714   -7.4930   -4.7790 O.3       1 <0>        -0.4909
     39 H1         -1.5734    0.9829    0.6857 H         1 <0>         0.1590
     40 H2          0.8730    1.9802    0.1806 H         1 <0>         0.1614
     41 H3         -1.2775   -1.5635    1.2352 H         1 <0>         0.2121
     42 H4          3.3153   -2.9360    1.4079 H         1 <0>         0.0791
     43 H5          1.9926   -2.3239    0.3808 H         1 <0>         0.1184
     44 H6          3.2853   -4.3118   -0.5859 H         1 <0>         0.1013
     45 H7          3.2057   -2.8773   -1.6418 H         1 <0>         0.0724
     46 H8          6.7884   -1.9943   -0.6671 H         1 <0>         0.1017
     47 H9          5.4657   -1.3822   -1.6943 H         1 <0>         0.0741
     48 H10         5.4953   -0.0069    0.2901 H         1 <0>         0.1082
     49 H11         5.5787   -1.4388    1.3493 H         1 <0>         0.0782
     50 H12         4.1529   -5.6632   -0.9744 H         1 <0>         0.1301
     51 H13         5.5044   -7.7136   -0.9264 H         1 <0>         0.1336
     52 H14         9.0436   -5.3561   -0.3440 H         1 <0>         0.1259
     53 H15         7.6846   -3.3109   -0.4032 H         1 <0>         0.1297
     54 H16         9.0284   -7.7897   -3.2865 H         1 <0>         0.1295
     55 H17        10.6739   -7.6497   -5.0743 H         1 <0>         0.1381
     56 H18        13.8439   -7.5102   -2.2169 H         1 <0>         0.1407
     57 H19         8.3003   -9.4593    1.5725 H         1 <0>         0.1363
     58 H20         7.2715   -9.5541    3.8022 H         1 <0>         0.1363
     59 H21         9.7987   -6.3645    5.1186 H         1 <0>         0.1362
     60 H22        10.8456   -6.2670    2.8974 H         1 <0>         0.1335
     61 H23         8.3858   -8.5658    6.4621 H         1 <0>         0.3952
     62 H24        13.4780   -6.5892   -5.0537 H         1 <0>         0.3963
@<TRIPOS>BOND
     1    1    5 2
     2    1    2 1
     3    1   39 1
     4    2    3 2
     5    2   40 1
     6    3    4 1
     7    3    6 1
     8    4    5 1
     9    5   41 1
    10    6    7 2
    11    6    8 am
    12    8   13 1
    13    8    9 1
    14    9   10 1
    15    9   42 1
    16    9   43 1
    17   10   11 1
    18   10   44 1
    19   10   45 1
    20   11   12 1
    21   11   14 1
    22   12   13 1
    23   12   46 1
    24   12   47 1
    25   13   48 1
    26   13   49 1
    27   14   19 ar
    28   14   15 ar
    29   15   16 ar
    30   15   50 1
    31   16   17 ar
    32   16   51 1
    33   17   18 ar
    34   17   20 1
    35   18   19 ar
    36   18   52 1
    37   19   53 1
    38   20   21 2
    39   20   22 1
    40   22   30 2
    41   22   23 1
    42   23   28 ar
    43   23   24 ar
    44   24   25 ar
    45   24   54 1
    46   25   26 ar
    47   25   55 1
    48   26   27 ar
    49   26   38 1
    50   27   28 ar
    51   27   56 1
    52   28   29 1
    53   29   30 1
    54   30   31 1
    55   31   36 ar
    56   31   32 ar
    57   32   33 ar
    58   32   57 1
    59   33   34 ar
    60   33   58 1
    61   34   35 ar
    62   34   37 1
    63   35   36 ar
    64   35   59 1
    65   36   60 1
    66   37   61 1
    67   38   62 1
@<TRIPOS>MOLECULE
CHEMBL379543
   48    52     0     0     0
SMALL
USER_CHARGES

@<TRIPOS>ATOM
      1 C1          0.8099    1.5753   -0.0481 C.3       1 <0>        -0.1539
      2 C2          0.8182    0.0454   -0.0366 C.3       1 <0>        -0.1257
      3 C3          1.2034   -0.4730   -1.4236 C.3       1 <0>        -0.1219
      4 C4          1.2116   -2.0029   -1.4121 C.3       1 <0>        -0.0992
      5 C5          1.5968   -2.5213   -2.7992 C.3       1 <0>        -0.0365
      6 C6          0.6111   -2.0468   -3.8706 C.3       1 <0>        -0.1065
      7 C7         -0.7569   -2.6743   -3.5826 C.3       1 <0>        -0.1687
      8 C8         -0.6508   -4.1743   -3.5319 C.2       1 <0>         0.3949
      9 O1         -1.6177   -4.8517   -3.8175 O.2       1 <0>        -0.4581
     10 C9          0.5539   -4.8068   -3.1573 C.2       1 <0>        -0.1640
     11 C10         1.6209   -4.0410   -2.8458 C.2       1 <0>         0.0284
     12 C11         2.9960   -4.4430   -2.5344 C.ar      1 <0>        -0.1261
     13 C12         3.5187   -5.6617   -2.0561 C.ar      1 <0>        -0.0333
     14 C13         4.8580   -5.8316   -1.8958 C.ar      1 <0>        -0.1482
     15 C14         5.7402   -4.7922   -2.1954 C.ar      1 <0>         0.1487
     16 C15         5.2344   -3.5534   -2.6391 C.ar      1 <0>        -0.1738
     17 C16         3.8585   -3.3769   -2.7920 C.ar      1 <0>         0.0153
     18 C17         3.0461   -2.1525   -3.1608 C.3       1 <0>        -0.0793
     19 C18         6.3936   -2.6892   -2.8481 C.2       1 <0>         0.0842
     20 N1          7.4589   -3.3778   -2.5545 N.2       1 <0>        -0.2479
     21 N2          7.1019   -4.6689   -2.1529 N.pl3     1 <0>        -0.5059
     22 H1          7.7214   -5.3660   -1.8863 H         1 <0>         0.4428
     23 C19         0.6474   -6.3101   -3.1061 C.3       1 <0>        -0.1172
     24 C20        -0.4235   -7.1102   -3.8504 C.3       1 <0>        -0.1795
     25 C21        -0.4317   -7.0587   -2.3212 C.3       1 <0>        -0.1647
     26 H2          1.8023    1.9420   -0.3104 H         1 <0>         0.0538
     27 H3          0.0861    1.9292   -0.7822 H         1 <0>         0.0541
     28 H4          0.5356    1.9446    0.9400 H         1 <0>         0.0536
     29 H5          1.5421   -0.3086    0.6975 H         1 <0>         0.0610
     30 H6         -0.1742   -0.3214    0.2257 H         1 <0>         0.0613
     31 H7          0.4795   -0.1191   -2.1577 H         1 <0>         0.0684
     32 H8          2.1957   -0.1063   -1.6859 H         1 <0>         0.0669
     33 H9          1.9355   -2.3569   -0.6781 H         1 <0>         0.0708
     34 H10         0.2192   -2.3697   -1.1499 H         1 <0>         0.0702
     35 H11         0.5299   -0.9603   -3.8384 H         1 <0>         0.0868
     36 H12         0.9591   -2.3623   -4.8542 H         1 <0>         0.0752
     37 H13        -1.1261   -2.3075   -2.6249 H         1 <0>         0.1028
     38 H14        -1.4556   -2.3898   -4.3694 H         1 <0>         0.0972
     39 H15         2.8462   -6.4711   -1.8134 H         1 <0>         0.1362
     40 H16         5.2409   -6.7749   -1.5355 H         1 <0>         0.1324
     41 H17         3.1309   -1.9478   -4.2280 H         1 <0>         0.0961
     42 H18         3.3745   -1.2900   -2.5807 H         1 <0>         0.0957
     43 H19         6.3710   -1.6635   -3.1856 H         1 <0>         0.1995
     44 H20         1.6580   -6.7179   -3.0866 H         1 <0>         0.1132
     45 H21        -1.1956   -6.5494   -4.3770 H         1 <0>         0.1263
     46 H22        -0.1175   -8.0446   -4.3208 H         1 <0>         0.0878
     47 H23        -0.1311   -7.9592   -1.7857 H         1 <0>         0.0937
     48 H24        -1.2093   -6.4639   -1.8419 H         1 <0>         0.0930
@<TRIPOS>BOND
     1    1    2 1
     2    1   26 1
     3    1   27 1
     4    1   28 1
     5    2    3 1
     6    2   29 1
     7    2   30 1
     8    3    4 1
     9    3   31 1
    10    3   32 1
    11    4    5 1
    12    4   33 1
    13    4   34 1
    14    5   11 1
    15    5   18 1
    16    5    6 1
    17    6    7 1
    18    6   35 1
    19    6   36 1
    20    7    8 1
    21    7   37 1
    22    7   38 1
    23    8    9 2
    24    8   10 1
    25   10   11 2
    26   10   23 1
    27   11   12 1
    28   12   17 ar
    29   12   13 ar
    30   13   14 ar
    31   13   39 1
    32   14   15 ar
    33   14   40 1
    34   15   21 1
    35   15   16 ar
    36   16   17 ar
    37   16   19 1
    38   17   18 1
    39   18   41 1
    40   18   42 1
    41   19   20 2
    42   19   43 1
    43   20   21 1
    44   21   22 1
    45   23   25 1
    46   23   24 1
    47   23   44 1
    48   24   25 1
    49   24   45 1
    50   24   46 1
    51   25   47 1
    52   25   48 1
@<TRIPOS>MOLECULE
CHEMBL379543__1
   48    52     0     0     0
SMALL
USER_CHARGES

@<TRIPOS>ATOM
      1 C1          0.8088    1.5763   -0.0493 C.3       1 <0>        -0.1538
      2 C2          0.8176    0.0463   -0.0374 C.3       1 <0>        -0.1260
      3 C3          1.2031   -0.4722   -1.4243 C.3       1 <0>        -0.1212
      4 C4          1.2119   -2.0021   -1.4124 C.3       1 <0>        -0.0991
      5 C5          1.5974   -2.5207   -2.7993 C.3       1 <0>        -0.0365
      6 C6          0.6128   -2.0465   -3.8721 C.3       1 <0>        -0.1061
      7 C7         -0.7546   -2.6771   -3.5881 C.3       1 <0>        -0.1686
      8 C8         -0.6465   -4.1770   -3.5405 C.2       1 <0>         0.3948
      9 O1         -1.6115   -4.8552   -3.8317 O.2       1 <0>        -0.4599
     10 C9          0.5562   -4.8080   -3.1631 C.2       1 <0>        -0.1690
     11 C10         1.6225   -4.0402   -2.8470 C.2       1 <0>         0.0304
     12 C11         2.9957   -4.4425   -2.5305 C.ar      1 <0>        -0.1242
     13 C12         3.5030   -5.6706   -2.0343 C.ar      1 <0>        -0.0452
     14 C13         4.8231   -5.8789   -1.8546 C.ar      1 <0>        -0.1095
     15 C14         5.7500   -4.8553   -2.1605 C.ar      1 <0>         0.1211
     16 C15         5.2419   -3.5620   -2.6464 C.ar      1 <0>        -0.2001
     17 C16         3.8557   -3.3831   -2.7931 C.ar      1 <0>         0.0167
     18 C17         3.0477   -2.1550   -3.1608 C.3       1 <0>        -0.0798
     19 C18         6.3538   -2.7624   -2.8622 C.2       1 <0>         0.0985
     20 N1          7.4400   -3.4778   -2.5463 N.pl3     1 <0>        -0.4212
     21 N2          7.0642   -4.7558   -2.1182 N.2       1 <0>        -0.3036
     22 H1          8.3536   -3.1572   -2.6051 H         1 <0>         0.4469
     23 C19         0.6515   -6.3112   -3.1141 C.3       1 <0>        -0.1156
     24 C20        -0.4163   -7.1116   -3.8625 C.3       1 <0>        -0.1803
     25 C21        -0.4288   -7.0625   -2.3333 C.3       1 <0>        -0.1654
     26 H2          1.8010    1.9433   -0.3116 H         1 <0>         0.0531
     27 H3          0.0848    1.9297   -0.7835 H         1 <0>         0.0541
     28 H4          0.5342    1.9457    0.9387 H         1 <0>         0.0537
     29 H5          1.5416   -0.3071    0.6968 H         1 <0>         0.0611
     30 H6         -0.1747   -0.3207    0.2249 H         1 <0>         0.0618
     31 H7          0.4791   -0.1188   -2.1585 H         1 <0>         0.0682
     32 H8          2.1953   -0.1052   -1.6866 H         1 <0>         0.0656
     33 H9          1.9359   -2.3556   -0.6782 H         1 <0>         0.0713
     34 H10         0.2196   -2.3692   -1.1501 H         1 <0>         0.0705
     35 H11         0.5294   -0.9603   -3.8384 H         1 <0>         0.0855
     36 H12         0.9635   -2.3598   -4.8554 H         1 <0>         0.0746
     37 H13        -1.1262   -2.3130   -2.6303 H         1 <0>         0.1022
     38 H14        -1.4523   -2.3919   -4.3754 H         1 <0>         0.0963
     39 H15         2.8105   -6.4634   -1.7926 H         1 <0>         0.1326
     40 H16         5.1730   -6.8283   -1.4770 H         1 <0>         0.1342
     41 H17         3.1330   -1.9494   -4.2278 H         1 <0>         0.0938
     42 H18         3.3787   -1.2944   -2.5795 H         1 <0>         0.0927
     43 H19         6.3450   -1.7437   -3.2210 H         1 <0>         0.1917
     44 H20         1.6626   -6.7177   -3.0924 H         1 <0>         0.1145
     45 H21        -1.1877   -6.5509   -4.3904 H         1 <0>         0.1259
     46 H22        -0.1077   -8.0449   -4.3335 H         1 <0>         0.0873
     47 H23        -0.1285   -7.9634   -1.7984 H         1 <0>         0.0935
     48 H24        -1.2084   -6.4694   -1.8552 H         1 <0>         0.0923
@<TRIPOS>BOND
     1    1    2 1
     2    1   26 1
     3    1   27 1
     4    1   28 1
     5    2    3 1
     6    2   29 1
     7    2   30 1
     8    3    4 1
     9    3   31 1
    10    3   32 1
    11    4    5 1
    12    4   33 1
    13    4   34 1
    14    5   11 1
    15    5   18 1
    16    5    6 1
    17    6    7 1
    18    6   35 1
    19    6   36 1
    20    7    8 1
    21    7   37 1
    22    7   38 1
    23    8    9 2
    24    8   10 1
    25   10   11 2
    26   10   23 1
    27   11   12 1
    28   12   17 ar
    29   12   13 ar
    30   13   14 ar
    31   13   39 1
    32   14   15 ar
    33   14   40 1
    34   15   16 ar
    35   15   21 2
    36   16   17 ar
    37   16   19 2
    38   17   18 1
    39   18   41 1
    40   18   42 1
    41   19   43 1
    42   19   20 1
    43   20   22 1
    44   20   21 1
    45   23   25 1
    46   23   24 1
    47   23   44 1
    48   24   25 1
    49   24   45 1
    50   24   46 1
    51   25   47 1
    52   25   48 1
@<TRIPOS>MOLECULE
CHEMBL379543__2
   48    52     0     0     0
SMALL
USER_CHARGES

@<TRIPOS>ATOM
      1 C1          0.5353    1.4835    0.6422 C.3       1 <0>        -0.1540
      2 C2          0.5616   -0.0460    0.6107 C.3       1 <0>        -0.1257
      3 C3          0.9479   -0.5206   -0.7915 C.3       1 <0>        -0.1218
      4 C4          0.9742   -2.0501   -0.8230 C.3       1 <0>        -0.0995
      5 C5          1.3605   -2.5247   -2.2253 C.3       1 <0>        -0.0365
      6 C6          2.7413   -2.0045   -2.6346 C.3       1 <0>        -0.1063
      7 C7          3.7889   -2.6281   -1.7064 C.3       1 <0>        -0.1687
      8 C8          3.7103   -4.1299   -1.7531 C.2       1 <0>         0.3949
      9 O1          4.7051   -4.7877   -1.5232 O.2       1 <0>        -0.4581
     10 C9          2.4991   -4.7865   -2.0592 C.2       1 <0>        -0.1636
     11 C10         1.4024   -4.0422   -2.3147 C.2       1 <0>         0.0281
     12 C11         0.0706   -4.4679   -2.7556 C.ar      1 <0>        -0.1252
     13 C12        -0.5912   -5.7071   -2.6395 C.ar      1 <0>        -0.0343
     14 C13        -1.8213   -5.8954   -3.1867 C.ar      1 <0>        -0.1473
     15 C14        -2.4554   -4.8551   -3.8679 C.ar      1 <0>         0.1482
     16 C15        -1.8262   -3.5971   -3.9625 C.ar      1 <0>        -0.1734
     17 C16        -0.5685   -3.4020   -3.3901 C.ar      1 <0>         0.0149
     18 C17         0.2869   -2.1579   -3.2646 C.3       1 <0>        -0.0791
     19 C18        -2.7404   -2.7375   -4.7109 C.2       1 <0>         0.0840
     20 N1         -3.7890   -3.4461   -5.0166 N.2       1 <0>        -0.2478
     21 N2         -3.6526   -4.7464   -4.5208 N.pl3     1 <0>        -0.5057
     22 H1         -4.3032   -5.4585   -4.6239 H         1 <0>         0.4428
     23 C19         2.4315   -6.2914   -2.1007 C.3       1 <0>        -0.1187
     24 C20         3.5540   -7.0683   -1.4097 C.3       1 <0>        -0.1774
     25 C21         3.4830   -7.0230   -2.9374 C.3       1 <0>        -0.1659
     26 H2          1.5223    1.8692    0.3872 H         1 <0>         0.0541
     27 H3         -0.1953    1.8493   -0.0793 H         1 <0>         0.0538
     28 H4          0.2601    1.8217    1.6412 H         1 <0>         0.0536
     29 H5          1.2922   -0.4117    1.3322 H         1 <0>         0.0614
     30 H6         -0.4255   -0.4316    0.8658 H         1 <0>         0.0611
     31 H7          0.2173   -0.1549   -1.5130 H         1 <0>         0.0668
     32 H8          1.9350   -0.1349   -1.0466 H         1 <0>         0.0685
     33 H9          1.7048   -2.4158   -0.1015 H         1 <0>         0.0705
     34 H10        -0.0129   -2.4358   -0.5680 H         1 <0>         0.0709
     35 H11         2.9494   -2.2897   -3.6659 H         1 <0>         0.0749
     36 H12         2.7669   -0.9190   -2.5392 H         1 <0>         0.0868
     37 H13         4.7828   -2.3102   -2.0212 H         1 <0>         0.0971
     38 H14         3.6108   -2.2905   -0.6854 H         1 <0>         0.1030
     39 H15        -0.1144   -6.5179   -2.1089 H         1 <0>         0.1359
     40 H16        -2.3099   -6.8541   -3.0942 H         1 <0>         0.1325
     41 H17        -0.3127   -1.3190   -2.9114 H         1 <0>         0.0957
     42 H18         0.7508   -1.9180   -4.2213 H         1 <0>         0.0960
     43 H19        -2.5759   -1.7007   -4.9646 H         1 <0>         0.1995
     44 H20         1.4291   -6.7181   -2.0671 H         1 <0>         0.1139
     45 H21         4.3413   -6.4909   -0.9252 H         1 <0>         0.1261
     46 H22         3.2901   -8.0063   -0.9212 H         1 <0>         0.0883
     47 H23         3.1724   -7.9312   -3.4539 H         1 <0>         0.0931
     48 H24         4.2236   -6.4158   -3.4579 H         1 <0>         0.0926
@<TRIPOS>BOND
     1    1    2 1
     2    1   26 1
     3    1   27 1
     4    1   28 1
     5    2    3 1
     6    2   29 1
     7    2   30 1
     8    3    4 1
     9    3   31 1
    10    3   32 1
    11    4    5 1
    12    4   33 1
    13    4   34 1
    14    5   11 1
    15    5   18 1
    16    5    6 1
    17    6    7 1
    18    6   35 1
    19    6   36 1
    20    7    8 1
    21    7   37 1
    22    7   38 1
    23    8    9 2
    24    8   10 1
    25   10   11 2
    26   10   23 1
    27   11   12 1
    28   12   17 ar
    29   12   13 ar
    30   13   14 ar
    31   13   39 1
    32   14   15 ar
    33   14   40 1
    34   15   21 1
    35   15   16 ar
    36   16   17 ar
    37   16   19 1
    38   17   18 1
    39   18   41 1
    40   18   42 1
    41   19   20 2
    42   19   43 1
    43   20   21 1
    44   21   22 1
    45   23   25 1
    46   23   24 1
    47   23   44 1
    48   24   25 1
    49   24   45 1
    50   24   46 1
    51   25   47 1
    52   25   48 1
@<TRIPOS>MOLECULE
CHEMBL379543__3
   48    52     0     0     0
SMALL
USER_CHARGES

@<TRIPOS>ATOM
      1 C1          0.5364    1.4827    0.6445 C.3       1 <0>        -0.1538
      2 C2          0.5633   -0.0468    0.6131 C.3       1 <0>        -0.1260
      3 C3          0.9486   -0.5213   -0.7895 C.3       1 <0>        -0.1212
      4 C4          0.9755   -2.0507   -0.8210 C.3       1 <0>        -0.0993
      5 C5          1.3609   -2.5253   -2.2236 C.3       1 <0>        -0.0365
      6 C6          2.7406   -2.0042   -2.6357 C.3       1 <0>        -0.1059
      7 C7          3.7910   -2.6298   -1.7120 C.3       1 <0>        -0.1687
      8 C8          3.7136   -4.1315   -1.7624 C.2       1 <0>         0.3948
      9 O1          4.7104   -4.7891   -1.5395 O.2       1 <0>        -0.4599
     10 C9          2.5031   -4.7877   -2.0646 C.2       1 <0>        -0.1685
     11 C10         1.4037   -4.0424   -2.3144 C.2       1 <0>         0.0301
     12 C11         0.0710   -4.4697   -2.7491 C.ar      1 <0>        -0.1234
     13 C12        -0.5850   -5.7195   -2.6097 C.ar      1 <0>        -0.0461
     14 C13        -1.8077   -5.9477   -3.1308 C.ar      1 <0>        -0.1084
     15 C14        -2.4779   -4.9240   -3.8402 C.ar      1 <0>         0.1208
     16 C15        -1.8281   -3.6094   -3.9688 C.ar      1 <0>        -0.1997
     17 C16        -0.5646   -3.4109   -3.3863 C.ar      1 <0>         0.0162
     18 C17         0.2854   -2.1625   -3.2626 C.3       1 <0>        -0.0795
     19 C18        -2.6976   -2.8144   -4.6996 C.2       1 <0>         0.0983
     20 N1         -3.7745   -3.5516   -4.9968 N.pl3     1 <0>        -0.4213
     21 N2         -3.6340   -4.8397   -4.4688 N.2       1 <0>        -0.3033
     22 H1         -4.5401   -3.2388   -5.5036 H         1 <0>         0.4469
     23 C19         2.4362   -6.2926   -2.1083 C.3       1 <0>        -0.1175
     24 C20         3.5615   -7.0700   -1.4225 C.3       1 <0>        -0.1782
     25 C21         3.4852   -7.0222   -2.9498 C.3       1 <0>        -0.1664
     26 H2          1.5231    1.8688    0.3887 H         1 <0>         0.0541
     27 H3         -0.1949    1.8481   -0.0764 H         1 <0>         0.0531
     28 H4          0.2618    1.8207    1.6438 H         1 <0>         0.0537
     29 H5          1.2946   -0.4122    1.3340 H         1 <0>         0.0619
     30 H6         -0.4234   -0.4329    0.8689 H         1 <0>         0.0611
     31 H7          0.2173   -0.1559   -1.5104 H         1 <0>         0.0655
     32 H8          1.9353   -0.1352   -1.0454 H         1 <0>         0.0682
     33 H9          1.7069   -2.4162   -0.1001 H         1 <0>         0.0707
     34 H10        -0.0112   -2.4368   -0.5651 H         1 <0>         0.0714
     35 H11         2.9457   -2.2870   -3.6682 H         1 <0>         0.0744
     36 H12         2.7666   -0.9189   -2.5379 H         1 <0>         0.0856
     37 H13         4.7839   -2.3103   -2.0286 H         1 <0>         0.0963
     38 H14         3.6155   -2.2950   -0.6896 H         1 <0>         0.1024
     39 H15        -0.0899   -6.5131   -2.0698 H         1 <0>         0.1325
     40 H16        -2.2754   -6.9132   -3.0067 H         1 <0>         0.1343
     41 H17        -0.3174   -1.3259   -2.9093 H         1 <0>         0.0927
     42 H18         0.7478   -1.9213   -4.2197 H         1 <0>         0.0936
     43 H19        -2.5353   -1.7838   -4.9788 H         1 <0>         0.1916
     44 H20         1.4341   -6.7198   -2.0720 H         1 <0>         0.1156
     45 H21         4.3502   -6.4929   -0.9396 H         1 <0>         0.1254
     46 H22         3.2998   -8.0089   -0.9346 H         1 <0>         0.0879
     47 H23         3.1733   -7.9297   -3.4668 H         1 <0>         0.0929
     48 H24         4.2237   -6.4137   -3.4718 H         1 <0>         0.0918
@<TRIPOS>BOND
     1    1    2 1
     2    1   26 1
     3    1   27 1
     4    1   28 1
     5    2    3 1
     6    2   29 1
     7    2   30 1
     8    3    4 1
     9    3   31 1
    10    3   32 1
    11    4    5 1
    12    4   33 1
    13    4   34 1
    14    5   11 1
    15    5   18 1
    16    5    6 1
    17    6    7 1
    18    6   35 1
    19    6   36 1
    20    7    8 1
    21    7   37 1
    22    7   38 1
    23    8    9 2
    24    8   10 1
    25   10   11 2
    26   10   23 1
    27   11   12 1
    28   12   17 ar
    29   12   13 ar
    30   13   14 ar
    31   13   39 1
    32   14   15 ar
    33   14   40 1
    34   15   16 ar
    35   15   21 2
    36   16   17 ar
    37   16   19 2
    38   17   18 1
    39   18   41 1
    40   18   42 1
    41   19   43 1
    42   19   20 1
    43   20   22 1
    44   20   21 1
    45   23   25 1
    46   23   24 1
    47   23   44 1
    48   24   25 1
    49   24   45 1
    50   24   46 1
    51   25   47 1
    52   25   48 1
@<TRIPOS>MOLECULE
CHEMBL380565
   41    44     0     0     0
SMALL
USER_CHARGES

@<TRIPOS>ATOM
      1 C1         -0.0169    1.3920    0.0097 C.ar      1 <0>        -0.0532
      2 C2          1.1678    2.0957    0.0022 C.ar      1 <0>        -0.1987
      3 C3          2.3813    1.4168   -0.0131 C.ar      1 <0>         0.2209
      4 C4          2.4034    0.0264   -0.0207 C.ar      1 <0>        -0.1981
      5 C5          1.2221   -0.6828   -0.0133 C.ar      1 <0>        -0.0463
      6 C6          0.0021   -0.0041    0.0020 C.ar      1 <0>        -0.0989
      7 C7         -1.2679   -0.7625    0.0106 C.2       1 <0>        -0.0211
      8 C8         -1.6968   -1.5602   -0.9949 C.2       1 <0>        -0.0830
      9 C9         -3.0296   -2.1430   -0.5876 C.3       1 <0>        -0.0503
     10 C10        -3.3201   -1.5817    0.7830 C.ar      1 <0>        -0.0808
     11 C11        -2.2424   -0.7602    1.1202 C.ar      1 <0>        -0.0688
     12 C12        -2.2411   -0.1049    2.3550 C.ar      1 <0>        -0.0755
     13 C13        -3.2944   -0.2761    3.2269 C.ar      1 <0>        -0.1451
     14 C14        -4.3598   -1.0981    2.8846 C.ar      1 <0>         0.1101
     15 C15        -4.3711   -1.7452    1.6545 C.ar      1 <0>        -0.1271
     16 O1         -5.3953   -1.2633    3.7487 O.3       1 <0>        -0.4973
     17 C16        -0.9911   -1.8142   -2.2593 C.ar      1 <0>        -0.0350
     18 C17        -0.7834   -0.7717   -3.1693 C.ar      1 <0>        -0.0780
     19 C18        -0.1215   -1.0153   -4.3527 C.ar      1 <0>        -0.1432
     20 C19         0.3390   -2.2933   -4.6435 C.ar      1 <0>         0.1072
     21 C20         0.1356   -3.3320   -3.7438 C.ar      1 <0>        -0.1441
     22 C21        -0.5195   -3.0982   -2.5546 C.ar      1 <0>        -0.0886
     23 O2          0.9904   -2.5282   -5.8125 O.3       1 <0>        -0.5004
     24 N1          3.5794    2.1323   -0.0211 N.pl3     1 <0>        -0.8777
     25 H1         -0.9590    1.9197    0.0260 H         1 <0>         0.1208
     26 H2          1.1538    3.1756    0.0077 H         1 <0>         0.1206
     27 H3          3.3474   -0.4981   -0.0329 H         1 <0>         0.1198
     28 H4          1.2398   -1.7627   -0.0196 H         1 <0>         0.1192
     29 H5         -3.8044   -1.8381   -1.2911 H         1 <0>         0.1052
     30 H6         -2.9672   -3.2303   -0.5436 H         1 <0>         0.1046
     31 H7         -1.4144    0.5352    2.6259 H         1 <0>         0.1272
     32 H8         -3.2910    0.2309    4.1805 H         1 <0>         0.1314
     33 H9         -5.1990   -2.3858    1.3886 H         1 <0>         0.1301
     34 H10        -6.1096   -0.6217    3.6338 H         1 <0>         0.3916
     35 H11        -1.1417    0.2220   -2.9444 H         1 <0>         0.1266
     36 H12         0.0393   -0.2114   -5.0557 H         1 <0>         0.1292
     37 H13         0.4954   -4.3236   -3.9751 H         1 <0>         0.1301
     38 H14        -0.6732   -3.9055   -1.8538 H         1 <0>         0.1282
     39 H15         1.9485   -2.4079   -5.7600 H         1 <0>         0.3913
     40 H16         3.5651    3.1022   -0.0161 H         1 <0>         0.3986
     41 H17         4.4264    1.6598   -0.0318 H         1 <0>         0.3985
@<TRIPOS>BOND
     1    1    6 ar
     2    1    2 ar
     3    1   25 1
     4    2    3 ar
     5    2   26 1
     6    3    4 ar
     7    3   24 1
     8    4    5 ar
     9    4   27 1
    10    5    6 ar
    11    5   28 1
    12    6    7 1
    13    7   11 1
    14    7    8 2
    15    8    9 1
    16    8   17 1
    17    9   10 1
    18    9   29 1
    19    9   30 1
    20   10   15 ar
    21   10   11 ar
    22   11   12 ar
    23   12   13 ar
    24   12   31 1
    25   13   14 ar
    26   13   32 1
    27   14   15 ar
    28   14   16 1
    29   15   33 1
    30   16   34 1
    31   17   22 ar
    32   17   18 ar
    33   18   19 ar
    34   18   35 1
    35   19   20 ar
    36   19   36 1
    37   20   21 ar
    38   20   23 1
    39   21   22 ar
    40   21   37 1
    41   22   38 1
    42   23   39 1
    43   24   40 1
    44   24   41 1
@<TRIPOS>MOLECULE
CHEMBL190038
   33    35     0     0     0
SMALL
USER_CHARGES

@<TRIPOS>ATOM
      1 C1          1.4518   -0.7112    1.3296 C.3       1 <0>        -0.1397
      2 S1          0.2636   -0.0175    0.1474 S.3       1 <0>        -0.0876
      3 C2          1.0197   -0.2824   -1.4219 C.2       1 <0>        -0.0123
      4 C3          1.4778    0.7123   -2.2783 C.2       1 <0>        -0.1109
      5 C4          2.0220    0.1092   -3.4395 C.2       1 <0>         0.4383
      6 O1          2.5099    0.6923   -4.3893 O.2       1 <0>        -0.3947
      7 C5          1.8900   -1.3654   -3.2886 C.ar      1 <0>        -0.1351
      8 C6          1.2772   -1.5982   -2.0418 C.ar      1 <0>        -0.0977
      9 C7          1.0296   -2.9050   -1.6268 C.ar      1 <0>         0.1644
     10 C8          1.3933   -3.9732   -2.4469 C.ar      1 <0>        -0.1473
     11 C9          1.9974   -3.7393   -3.6667 C.ar      1 <0>         0.1340
     12 C10         2.2417   -2.4287   -4.0934 C.ar      1 <0>        -0.0812
     13 O2          2.3490   -4.7845   -4.4582 O.3       1 <0>        -0.4883
     14 O3          0.4374   -3.1377   -0.4292 O.3       1 <0>        -0.4846
     15 C11         1.4084    2.1677   -2.0189 C.ar      1 <0>        -0.0433
     16 C12         0.1701    2.8069   -1.9449 C.ar      1 <0>        -0.0704
     17 C13         0.1097    4.1634   -1.7025 C.ar      1 <0>        -0.1427
     18 C14         1.2784    4.8926   -1.5327 C.ar      1 <0>         0.1163
     19 C15         2.5119    4.2607   -1.6055 C.ar      1 <0>        -0.1431
     20 C16         2.5809    2.9035   -1.8419 C.ar      1 <0>        -0.0744
     21 O4          1.2146    6.2299   -1.2948 O.3       1 <0>        -0.4991
     22 H1          1.5282   -1.7880    1.1785 H         1 <0>         0.0945
     23 H2          2.4283   -0.2524    1.1749 H         1 <0>         0.0813
     24 H3          1.1127   -0.5101    2.3459 H         1 <0>         0.1106
     25 H4          1.2022   -4.9868   -2.1267 H         1 <0>         0.1505
     26 H5          2.7154   -2.2506   -5.0476 H         1 <0>         0.1462
     27 H6          1.6575   -5.0605   -5.0753 H         1 <0>         0.4000
     28 H7         -0.5279   -3.1778   -0.4690 H         1 <0>         0.4010
     29 H8         -0.7397    2.2403   -2.0776 H         1 <0>         0.1277
     30 H9         -0.8482    4.6588   -1.6450 H         1 <0>         0.1339
     31 H10         3.4190    4.8318   -1.4729 H         1 <0>         0.1335
     32 H11         3.5410    2.4119   -1.8943 H         1 <0>         0.1268
     33 H12         1.1672    6.4607   -0.3569 H         1 <0>         0.3931
@<TRIPOS>BOND
     1    1    2 1
     2    1   22 1
     3    1   23 1
     4    1   24 1
     5    2    3 1
     6    3    8 1
     7    3    4 2
     8    4    5 1
     9    4   15 1
    10    5    6 2
    11    5    7 1
    12    7   12 ar
    13    7    8 ar
    14    8    9 ar
    15    9   10 ar
    16    9   14 1
    17   10   11 ar
    18   10   25 1
    19   11   12 ar
    20   11   13 1
    21   12   26 1
    22   13   27 1
    23   14   28 1
    24   15   20 ar
    25   15   16 ar
    26   16   17 ar
    27   16   29 1
    28   17   18 ar
    29   17   30 1
    30   18   19 ar
    31   18   21 1
    32   19   20 ar
    33   19   31 1
    34   20   32 1
    35   21   33 1
@<TRIPOS>MOLECULE
CHEMBL412907
   48    51     0     0     0
SMALL
USER_CHARGES

@<TRIPOS>ATOM
      1 C1         -0.0167    1.3786    0.0115 C.ar      1 <0>        -0.1800
      2 C2          0.0020   -0.0039   -0.0109 C.ar      1 <0>        -0.0716
      3 C3          1.2063   -0.6797   -0.0269 C.ar      1 <0>        -0.1968
      4 C4          2.3998    0.0311   -0.0206 C.ar      1 <0>         0.2270
      5 C5          2.3775    1.4198    0.0018 C.ar      1 <0>        -0.2000
      6 C6          1.1696    2.0892    0.0178 C.ar      1 <0>        -0.0714
      7 N1          3.6196   -0.6492   -0.0363 N.pl3     1 <0>        -0.6212
      8 C7          4.8976    0.0732   -0.1486 C.3       1 <0>         0.1207
      9 C8          5.6827   -0.1583    1.1416 C.3       1 <0>        -0.1005
     10 C9          5.6883   -1.6183    1.5112 C.ar      1 <0>        -0.0477
     11 C10         6.6788   -2.0578    2.3800 C.ar      1 <0>        -0.1489
     12 C11         6.7354   -3.3849    2.7686 C.ar      1 <0>         0.1094
     13 C12         5.7940   -4.2832    2.2868 C.ar      1 <0>        -0.1485
     14 C13         4.8140   -3.8458    1.4214 C.ar      1 <0>        -0.0967
     15 C14         4.7614   -2.5150    1.0278 C.ar      1 <0>        -0.0978
     16 C15         3.6790   -2.1112    0.0645 C.3       1 <0>         0.2002
     17 C16         3.9825   -2.7046   -1.3127 C.3       1 <0>        -0.0908
     18 C17         2.8793   -2.3050   -2.2946 C.3       1 <0>        -0.1077
     19 C18         3.1829   -2.8983   -3.6718 C.3       1 <0>        -0.1187
     20 C19         3.2449   -4.4235   -3.5676 C.3       1 <0>        -0.1205
     21 C20         4.3481   -4.8231   -2.5857 C.3       1 <0>        -0.1177
     22 C21         4.0446   -4.2298   -1.2085 C.3       1 <0>        -0.1269
     23 O1          7.7090   -3.8065    3.6179 O.3       1 <0>        -0.4996
     24 H1         -0.9599    1.9046    0.0194 H         1 <0>         0.1167
     25 H2         -0.9263   -0.5559   -0.0154 H         1 <0>         0.1191
     26 H3          1.2202   -1.7594   -0.0440 H         1 <0>         0.1194
     27 H4          3.3036    1.9754    0.0072 H         1 <0>         0.1207
     28 H5          1.1515    3.1689    0.0353 H         1 <0>         0.1193
     29 H6          5.4637   -0.3087   -0.9983 H         1 <0>         0.0697
     30 H7          4.7088    1.1387   -0.2793 H         1 <0>         0.0902
     31 H8          6.7094    0.1801    1.0021 H         1 <0>         0.0851
     32 H9          5.2239    0.4139    1.9479 H         1 <0>         0.0822
     33 H10         7.4107   -1.3581    2.7557 H         1 <0>         0.1273
     34 H11         5.8290   -5.3198    2.5879 H         1 <0>         0.1302
     35 H12         4.0806   -4.5443    1.0463 H         1 <0>         0.1348
     36 H13         2.7199   -2.4896    0.4183 H         1 <0>         0.0960
     37 H14         4.9405   -2.3254   -1.6686 H         1 <0>         0.0729
     38 H15         1.9213   -2.6841   -1.9388 H         1 <0>         0.0608
     39 H16         2.8351   -1.2184   -2.3688 H         1 <0>         0.0657
     40 H17         2.3969   -2.6136   -4.3713 H         1 <0>         0.0609
     41 H18         4.1408   -2.5191   -4.0277 H         1 <0>         0.0590
     42 H19         2.2870   -4.8026   -3.2118 H         1 <0>         0.0610
     43 H20         3.4612   -4.8462   -4.5488 H         1 <0>         0.0599
     44 H21         4.3924   -5.9097   -2.5115 H         1 <0>         0.0622
     45 H22         5.3061   -4.4439   -2.9416 H         1 <0>         0.0604
     46 H23         4.8305   -4.5145   -0.5090 H         1 <0>         0.0775
     47 H24         3.0866   -4.6089   -0.8527 H         1 <0>         0.0633
     48 H25         7.4676   -3.7492    4.5525 H         1 <0>         0.3916
@<TRIPOS>BOND
     1    1    6 ar
     2    1    2 ar
     3    1   24 1
     4    2    3 ar
     5    2   25 1
     6    3    4 ar
     7    3   26 1
     8    4    5 ar
     9    4    7 1
    10    5    6 ar
    11    5   27 1
    12    6   28 1
    13    7   16 1
    14    7    8 1
    15    8    9 1
    16    8   29 1
    17    8   30 1
    18    9   10 1
    19    9   31 1
    20    9   32 1
    21   10   15 ar
    22   10   11 ar
    23   11   12 ar
    24   11   33 1
    25   12   13 ar
    26   12   23 1
    27   13   14 ar
    28   13   34 1
    29   14   15 ar
    30   14   35 1
    31   15   16 1
    32   16   17 1
    33   16   36 1
    34   17   22 1
    35   17   18 1
    36   17   37 1
    37   18   19 1
    38   18   38 1
    39   18   39 1
    40   19   20 1
    41   19   40 1
    42   19   41 1
    43   20   21 1
    44   20   42 1
    45   20   43 1
    46   21   22 1
    47   21   44 1
    48   21   45 1
    49   22   46 1
    50   22   47 1
    51   23   48 1
@<TRIPOS>MOLECULE
CHEMBL412907__1
   48    51     0     0     0
SMALL
USER_CHARGES

@<TRIPOS>ATOM
      1 C1          0.2354    1.5414    0.8659 C.ar      1 <0>        -0.1536
      2 C2          1.3283    1.7194    1.6943 C.ar      1 <0>        -0.0919
      3 C3          2.4836    0.9932    1.4815 C.ar      1 <0>        -0.1697
      4 C4          2.5470    0.0831    0.4339 C.ar      1 <0>         0.2247
      5 C5          1.4473   -0.0932   -0.3963 C.ar      1 <0>        -0.1655
      6 C6          0.2951    0.6363   -0.1779 C.ar      1 <0>        -0.0895
      7 N1          3.7139   -0.6527    0.2155 N.pl3     1 <0>        -0.6547
      8 C7          5.0291    0.0041    0.1338 C.3       1 <0>         0.1371
      9 C8          5.8746   -0.4907    1.3063 C.3       1 <0>        -0.1016
     10 C9          5.8029   -1.9905    1.4238 C.ar      1 <0>        -0.0467
     11 C10         6.8127   -2.6290    2.1321 C.ar      1 <0>        -0.1542
     12 C11         6.8021   -4.0043    2.2869 C.ar      1 <0>         0.1075
     13 C12         5.7732   -4.7509    1.7305 C.ar      1 <0>        -0.1556
     14 C13         4.7740   -4.1157    1.0245 C.ar      1 <0>        -0.1400
     15 C14         4.7886   -2.7361    0.8651 C.ar      1 <0>        -0.0975
     16 C15         3.6790   -2.1112    0.0645 C.3       1 <0>         0.2117
     17 C16         2.3328   -2.6423    0.5611 C.3       1 <0>        -0.0869
     18 C17         2.4317   -4.1525    0.7856 C.3       1 <0>        -0.1537
     19 C18         1.0855   -4.6836    1.2822 C.3       1 <0>        -0.1203
     20 C19         0.7200   -3.9951    2.5988 C.3       1 <0>        -0.1198
     21 C20         0.6210   -2.4849    2.3743 C.3       1 <0>        -0.1146
     22 C21         1.9672   -1.9539    1.8777 C.3       1 <0>        -0.1426
     23 O1          7.7950   -4.6208    2.9803 O.3       1 <0>        -0.5009
     24 H1         -0.6683    2.1073    1.0372 H         1 <0>         0.1188
     25 H2          1.2785    2.4273    2.5083 H         1 <0>         0.1204
     26 H3          3.3369    1.1329    2.1285 H         1 <0>         0.1193
     27 H4          1.4934   -0.7997   -1.2119 H         1 <0>         0.1203
     28 H5         -0.5602    0.4997   -0.8230 H         1 <0>         0.1202
     29 H6          5.5140   -0.2572   -0.8067 H         1 <0>         0.0657
     30 H7          4.9060    1.0852    0.1982 H         1 <0>         0.0818
     31 H8          6.9115   -0.1925    1.1516 H         1 <0>         0.0814
     32 H9          5.5068   -0.0409    2.2285 H         1 <0>         0.0787
     33 H10         7.6127   -2.0474    2.5660 H         1 <0>         0.1246
     34 H11         5.7552   -5.8241    1.8503 H         1 <0>         0.1277
     35 H12         3.9727   -4.6960    0.5914 H         1 <0>         0.1807
     36 H13         3.8047   -2.3701   -0.9868 H         1 <0>         0.0710
     37 H14         1.5636   -2.4352   -0.1830 H         1 <0>         0.0811
     38 H15         2.6922   -4.6430   -0.1523 H         1 <0>         0.0716
     39 H16         3.2008   -4.3596    1.5297 H         1 <0>         0.1103
     40 H17         0.3164   -4.4765    0.5381 H         1 <0>         0.0599
     41 H18         1.1560   -5.7595    1.4422 H         1 <0>         0.0620
     42 H19        -0.2391   -4.3735    2.9525 H         1 <0>         0.0585
     43 H20         1.4891   -4.2022    3.3429 H         1 <0>         0.0584
     44 H21        -0.1481   -2.2779    1.6302 H         1 <0>         0.0589
     45 H22         0.3606   -1.9945    3.3122 H         1 <0>         0.0572
     46 H23         2.7363   -2.1609    2.6217 H         1 <0>         0.0547
     47 H24         1.8967   -0.8780    1.7177 H         1 <0>         0.1052
     48 H25         7.6163   -4.7118    3.9263 H         1 <0>         0.3899
@<TRIPOS>BOND
     1    1    6 ar
     2    1    2 ar
     3    1   24 1
     4    2    3 ar
     5    2   25 1
     6    3    4 ar
     7    3   26 1
     8    4    5 ar
     9    4    7 1
    10    5    6 ar
    11    5   27 1
    12    6   28 1
    13    7   16 1
    14    7    8 1
    15    8    9 1
    16    8   29 1
    17    8   30 1
    18    9   10 1
    19    9   31 1
    20    9   32 1
    21   10   15 ar
    22   10   11 ar
    23   11   12 ar
    24   11   33 1
    25   12   13 ar
    26   12   23 1
    27   13   14 ar
    28   13   34 1
    29   14   15 ar
    30   14   35 1
    31   15   16 1
    32   16   17 1
    33   16   36 1
    34   17   22 1
    35   17   18 1
    36   17   37 1
    37   18   19 1
    38   18   38 1
    39   18   39 1
    40   19   20 1
    41   19   40 1
    42   19   41 1
    43   20   21 1
    44   20   42 1
    45   20   43 1
    46   21   22 1
    47   21   44 1
    48   21   45 1
    49   22   46 1
    50   22   47 1
    51   23   48 1
@<TRIPOS>MOLECULE
CHEMBL1097377
   59    64     0     0     0
SMALL
USER_CHARGES

@<TRIPOS>ATOM
      1 C1          0.1267    1.4015    0.2656 C.3       1 <0>        -0.1369
      2 C2          0.2163   -0.1215    0.1495 C.3       1 <0>        -0.0414
      3 C3         -1.1105   -0.7397    0.5379 C.3       1 <0>        -0.1003
      4 C4         -1.4616   -0.2384    1.9518 C.3       1 <0>        -0.1139
      5 C5         -0.3546   -0.5882    2.9358 C.3       1 <0>        -0.0413
      6 H1         -0.2774   -1.6745    2.9835 H         1 <0>         0.0761
      7 C6         -0.6569   -0.0843    4.3175 C.ar      1 <0>        -0.0773
      8 C7         -1.9812   -0.0599    4.7337 C.ar      1 <0>        -0.1029
      9 C8         -2.3125    0.3844    5.9959 C.ar      1 <0>        -0.1471
     10 C9         -1.3124    0.8095    6.8586 C.ar      1 <0>         0.1026
     11 C10         0.0071    0.7889    6.4421 C.ar      1 <0>        -0.1480
     12 C11         0.3394    0.3476    5.1681 C.ar      1 <0>        -0.0576
     13 C12         1.7927    0.3807    4.7751 C.3       1 <0>        -0.0822
     14 C13         2.0476   -0.4456    3.5154 C.3       1 <0>        -0.1136
     15 C14         1.0019   -0.0371    2.4774 C.3       1 <0>        -0.0742
     16 H2          0.9508    1.0488    2.3984 H         1 <0>         0.0873
     17 C15         1.3002   -0.6555    1.1271 C.3       1 <0>        -0.0852
     18 H3          1.2530   -1.7423    1.1960 H         1 <0>         0.0797
     19 C16         2.5891   -0.1981    0.4355 C.3       1 <0>        -0.1129
     20 C17         2.3048   -0.4942   -1.0625 C.3       1 <0>        -0.1493
     21 C18         0.7638   -0.4984   -1.2221 C.3       1 <0>         0.1837
     22 C19         0.2833   -1.8711   -1.6170 C.ar      1 <0>        -0.0952
     23 C20        -0.6873   -2.0094   -2.5919 C.ar      1 <0>        -0.1047
     24 C21        -1.1288   -3.2685   -2.9556 C.ar      1 <0>        -0.0904
     25 C22        -0.5995   -4.3865   -2.3445 C.ar      1 <0>        -0.1322
     26 C23         0.3735   -4.2479   -1.3673 C.ar      1 <0>        -0.1300
     27 C24         0.8177   -2.9920   -1.0082 C.ar      1 <0>        -0.0856
     28 C25         0.7414   -5.6368   -0.9004 C.3       1 <0>         0.0898
     29 O1         -0.3307   -6.4958   -1.3302 O.3       1 <0>        -0.3596
     30 C26        -0.8613   -5.8652   -2.5104 C.3       1 <0>         0.0890
     31 O2          0.3642    0.4668   -2.1972 O.3       1 <0>        -0.5444
     32 O3         -1.6272    1.2438    8.1073 O.3       1 <0>        -0.5004
     33 H4          1.1064    1.8388    0.0733 H         1 <0>         0.0560
     34 H5         -0.5896    1.7799   -0.4636 H         1 <0>         0.0626
     35 H6         -0.2006    1.6707    1.2699 H         1 <0>         0.0622
     36 H7         -1.8828   -0.4306   -0.1664 H         1 <0>         0.0668
     37 H8         -1.0253   -1.8263    0.5413 H         1 <0>         0.0650
     38 H9         -1.5916    0.8435    1.9273 H         1 <0>         0.0708
     39 H10        -2.3918   -0.7040    2.2773 H         1 <0>         0.0653
     40 H11        -2.7592   -0.3918    4.0622 H         1 <0>         0.1274
     41 H12        -3.3452    0.4018    6.3116 H         1 <0>         0.1273
     42 H13         0.7855    1.1194    7.1138 H         1 <0>         0.1259
     43 H14         2.0888    1.4134    4.5904 H         1 <0>         0.0775
     44 H15         2.3924   -0.0203    5.5922 H         1 <0>         0.0748
     45 H16         3.0476   -0.2370    3.1350 H         1 <0>         0.0722
     46 H17         1.9557   -1.5067    3.7469 H         1 <0>         0.0662
     47 H18         2.7540    0.8677    0.5933 H         1 <0>         0.0744
     48 H19         3.4424   -0.7777    0.7879 H         1 <0>         0.0692
     49 H20         2.7435    0.2836   -1.6875 H         1 <0>         0.0770
     50 H21         2.7119   -1.4679   -1.3352 H         1 <0>         0.0726
     51 H22        -1.1012   -1.1336   -3.0694 H         1 <0>         0.1342
     52 H23        -1.8872   -3.3765   -3.7169 H         1 <0>         0.1263
     53 H24         1.5788   -2.8841   -0.2496 H         1 <0>         0.1280
     54 H25         1.6800   -5.9503   -1.3574 H         1 <0>         0.0779
     55 H26         0.8267   -5.6576    0.1861 H         1 <0>         0.0974
     56 H27        -1.9327   -6.0507   -2.5859 H         1 <0>         0.0980
     57 H28        -0.3512   -6.2397   -3.3979 H         1 <0>         0.0781
     58 H29         0.6837    0.2790   -3.0904 H         1 <0>         0.3751
     59 H30        -1.6337    0.5458    8.7765 H         1 <0>         0.3901
@<TRIPOS>BOND
     1    1    2 1
     2    1   33 1
     3    1   34 1
     4    1   35 1
     5    2   17 1
     6    2   21 1
     7    2    3 1
     8    3    4 1
     9    3   36 1
    10    3   37 1
    11    4    5 1
    12    4   38 1
    13    4   39 1
    14    5    6 1
    15    5   15 1
    16    5    7 1
    17    7   12 ar
    18    7    8 ar
    19    8    9 ar
    20    8   40 1
    21    9   10 ar
    22    9   41 1
    23   10   11 ar
    24   10   32 1
    25   11   12 ar
    26   11   42 1
    27   12   13 1
    28   13   14 1
    29   13   43 1
    30   13   44 1
    31   14   15 1
    32   14   45 1
    33   14   46 1
    34   15   16 1
    35   15   17 1
    36   17   18 1
    37   17   19 1
    38   19   20 1
    39   19   47 1
    40   19   48 1
    41   20   21 1
    42   20   49 1
    43   20   50 1
    44   21   22 1
    45   21   31 1
    46   22   27 ar
    47   22   23 ar
    48   23   24 ar
    49   23   51 1
    50   24   25 ar
    51   24   52 1
    52   25   30 1
    53   25   26 ar
    54   26   27 ar
    55   26   28 1
    56   27   53 1
    57   28   29 1
    58   28   54 1
    59   28   55 1
    60   29   30 1
    61   30   56 1
    62   30   57 1
    63   31   58 1
    64   32   59 1
@<TRIPOS>MOLECULE
CHEMBL1097284
   76    82     0     0     0
SMALL
USER_CHARGES

@<TRIPOS>ATOM
      1 C1         -2.3428   -1.3984    2.4512 C.3       1 <0>        -0.1268
      2 C2         -1.7885   -2.5855    1.7064 C.ar      1 <0>        -0.0259
      3 C3         -1.4623   -2.4709    0.3680 C.ar      1 <0>        -0.1421
      4 C4         -0.9538   -3.5597   -0.3152 C.ar      1 <0>        -0.0151
      5 C5         -0.7712   -4.7631    0.3402 C.ar      1 <0>        -0.6865
      6 C6         -1.0967   -4.8775    1.6788 C.ar      1 <0>        -0.0150
      7 C7         -1.6011   -3.7874    2.3631 C.ar      1 <0>        -0.1420
      8 S1         -0.1243   -6.1513   -0.5310 S.o2      1 <0>         2.7163
      9 O1         -0.5605   -7.3089    0.1683 O.2       1 <0>        -0.9447
     10 O2         -0.4124   -5.9382   -1.9060 O.2       1 <0>        -0.9451
     11 N1          1.5240   -6.0999   -0.3792 N.pl3     1 <0>        -1.0109
     12 C8          2.4629   -5.4192   -1.2766 C.3       1 <0>         0.1648
     13 C9          3.8543   -5.6453   -0.7414 C.ar      1 <0>        -0.1020
     14 C10         5.0892   -5.2247   -1.2048 C.ar      1 <0>        -0.0936
     15 C11         6.2397   -5.5703   -0.5226 C.ar      1 <0>        -0.1059
     16 C12         6.1580   -6.3374    0.6247 C.ar      1 <0>        -0.0950
     17 C13         4.9261   -6.7574    1.0876 C.ar      1 <0>        -0.0853
     18 C14         3.7727   -6.4114    0.4044 C.ar      1 <0>        -0.0983
     19 C15         2.3233   -6.7209    0.6817 C.3       1 <0>         0.1654
     20 C16         7.4123   -6.7156    1.3697 C.3       1 <0>         0.1847
     21 C17         8.3760   -5.5051    1.4477 C.3       1 <0>        -0.1488
     22 C18         9.6422   -5.9007    0.6399 C.3       1 <0>        -0.1146
     23 C19         9.1151   -6.9696   -0.3237 C.3       1 <0>        -0.0850
     24 H1          8.5476   -6.5087   -1.1322 H         1 <0>         0.0799
     25 C20         8.1771   -7.7899    0.6053 C.3       1 <0>        -0.0405
     26 C21         7.3605   -8.7257   -0.2610 C.3       1 <0>        -0.1003
     27 C22         8.3369   -9.7082   -0.9357 C.3       1 <0>        -0.1136
     28 C23         9.3897   -8.9550   -1.7357 C.3       1 <0>        -0.0415
     29 H2          8.8805   -8.4028   -2.5256 H         1 <0>         0.0754
     30 C24        10.1470   -7.9287   -0.8806 C.3       1 <0>        -0.0737
     31 H3         10.6486   -8.4455   -0.0625 H         1 <0>         0.0844
     32 C25        11.1657   -7.2146   -1.7692 C.3       1 <0>        -0.1116
     33 C26        12.2686   -8.2104   -2.1261 C.3       1 <0>        -0.0814
     34 C27        11.6925   -9.5156   -2.6084 C.ar      1 <0>        -0.0584
     35 C28        10.3731   -9.8868   -2.3827 C.ar      1 <0>        -0.0766
     36 C29         9.9145  -11.1179   -2.8307 C.ar      1 <0>        -0.1030
     37 C30        10.7734  -12.0083   -3.4397 C.ar      1 <0>        -0.1460
     38 C31        12.1082  -11.6695   -3.6063 C.ar      1 <0>         0.1031
     39 C32        12.5484  -10.3968   -3.2549 C.ar      1 <0>        -0.1502
     40 O3         12.9626  -12.5378   -4.2090 O.3       1 <0>        -0.5013
     41 C33         9.0168   -8.6153    1.5822 C.3       1 <0>        -0.1385
     42 O4          7.0875   -7.1779    2.6822 O.3       1 <0>        -0.5446
     43 H4         -1.5225   -0.8254    2.8835 H         1 <0>         0.0805
     44 H5         -2.9038   -0.7669    1.7623 H         1 <0>         0.0742
     45 H6         -3.0030   -1.7445    3.2465 H         1 <0>         0.0742
     46 H7         -1.6049   -1.5307   -0.1439 H         1 <0>         0.1342
     47 H8         -0.6996   -3.4704   -1.3610 H         1 <0>         0.1404
     48 H9         -0.9543   -5.8178    2.1907 H         1 <0>         0.1406
     49 H10        -1.8518   -3.8757    3.4098 H         1 <0>         0.1343
     50 H11         2.3814   -5.8349   -2.2809 H         1 <0>         0.0897
     51 H12         2.2446   -4.3515   -1.2988 H         1 <0>         0.0807
     52 H13         5.1532   -4.6257   -2.1012 H         1 <0>         0.1269
     53 H14         7.2023   -5.2417   -0.8855 H         1 <0>         0.1310
     54 H15         4.8625   -7.3566    1.9839 H         1 <0>         0.1322
     55 H16         2.0344   -6.3114    1.6497 H         1 <0>         0.0811
     56 H17         2.1706   -7.8001    0.6757 H         1 <0>         0.0897
     57 H18         7.9089   -4.6257    1.0043 H         1 <0>         0.0735
     58 H19         8.6418   -5.3048    2.4857 H         1 <0>         0.0762
     59 H20        10.0319   -5.0441    0.0899 H         1 <0>         0.0689
     60 H21        10.4049   -6.3171    1.2980 H         1 <0>         0.0736
     61 H22         6.6503   -9.2757    0.3563 H         1 <0>         0.0673
     62 H23         6.8266   -8.1548   -1.0207 H         1 <0>         0.0657
     63 H24         8.8288  -10.3082   -0.1701 H         1 <0>         0.0712
     64 H25         7.7805  -10.3656   -1.6037 H         1 <0>         0.0659
     65 H26        10.6782   -6.8640   -2.6789 H         1 <0>         0.0658
     66 H27        11.5938   -6.3688   -1.2313 H         1 <0>         0.0723
     67 H28        12.8936   -7.7844   -2.9111 H         1 <0>         0.0754
     68 H29        12.8818   -8.3951   -1.2441 H         1 <0>         0.0777
     69 H30         8.8751  -11.3810   -2.7009 H         1 <0>         0.1276
     70 H31        10.4089  -12.9646   -3.7847 H         1 <0>         0.1275
     71 H32        13.5840  -10.1272   -3.4004 H         1 <0>         0.1267
     72 H33        13.0208  -12.4303   -5.1682 H         1 <0>         0.3894
     73 H34         8.3602   -9.1090    2.2986 H         1 <0>         0.0637
     74 H35         9.5826   -9.3661    1.0305 H         1 <0>         0.0621
     75 H36         9.7060   -7.9588    2.1135 H         1 <0>         0.0551
     76 H37         6.6173   -6.5285    3.2228 H         1 <0>         0.3750
@<TRIPOS>BOND
     1    1    2 1
     2    1   43 1
     3    1   44 1
     4    1   45 1
     5    2    7 ar
     6    2    3 ar
     7    3    4 ar
     8    3   46 1
     9    4    5 ar
    10    4   47 1
    11    5    6 ar
    12    5    8 1
    13    6    7 ar
    14    6   48 1
    15    7   49 1
    16    8    9 2
    17    8   10 2
    18    8   11 1
    19   11   19 1
    20   11   12 1
    21   12   13 1
    22   12   50 1
    23   12   51 1
    24   13   18 ar
    25   13   14 ar
    26   14   15 ar
    27   14   52 1
    28   15   16 ar
    29   15   53 1
    30   16   17 ar
    31   16   20 1
    32   17   18 ar
    33   17   54 1
    34   18   19 1
    35   19   55 1
    36   19   56 1
    37   20   25 1
    38   20   21 1
    39   20   42 1
    40   21   22 1
    41   21   57 1
    42   21   58 1
    43   22   23 1
    44   22   59 1
    45   22   60 1
    46   23   24 1
    47   23   30 1
    48   23   25 1
    49   25   26 1
    50   25   41 1
    51   26   27 1
    52   26   61 1
    53   26   62 1
    54   27   28 1
    55   27   63 1
    56   27   64 1
    57   28   29 1
    58   28   35 1
    59   28   30 1
    60   30   31 1
    61   30   32 1
    62   32   33 1
    63   32   65 1
    64   32   66 1
    65   33   34 1
    66   33   67 1
    67   33   68 1
    68   34   39 ar
    69   34   35 ar
    70   35   36 ar
    71   36   37 ar
    72   36   69 1
    73   37   38 ar
    74   37   70 1
    75   38   39 ar
    76   38   40 1
    77   39   71 1
    78   40   72 1
    79   41   73 1
    80   41   74 1
    81   41   75 1
    82   42   76 1
@<TRIPOS>MOLECULE
CHEMBL198803
   62    66     0     0     0
SMALL
USER_CHARGES

@<TRIPOS>ATOM
      1 C1          0.1532    0.6112    0.3913 C.3       1 <0>        -0.1812
      2 C2          0.1755   -0.9022    0.1671 C.3       1 <0>         0.0389
      3 H1         -0.8460   -1.2819    0.1495 H         1 <0>         0.1537
      4 C3          0.8571   -1.2100   -1.1676 C.3       1 <0>         0.0287
      5 O1          2.1547   -0.6116   -1.1891 O.3       1 <0>        -0.3198
      6 C4          2.8974   -0.7907   -2.3109 C.ar      1 <0>         0.1484
      7 C5          2.3826   -1.5245   -3.3732 C.ar      1 <0>        -0.2157
      8 C6          3.1330   -1.7085   -4.5131 C.ar      1 <0>        -0.0167
      9 C7          4.4134   -1.1559   -4.6012 C.ar      1 <0>        -0.1827
     10 C8          4.9271   -0.4185   -3.5312 C.ar      1 <0>        -0.0192
     11 C9          4.1685   -0.2350   -2.3966 C.ar      1 <0>        -0.1531
     12 C10         5.2218   -1.3512   -5.8218 C.2       1 <0>         0.4629
     13 O2          4.8124   -2.0717   -6.7146 O.2       1 <0>        -0.4302
     14 C11         6.5140   -0.6795   -5.9584 C.2       1 <0>        -0.1636
     15 C12         6.6237    0.6183   -6.6294 C.ar      1 <0>        -0.0740
     16 C13         5.5933    1.3882   -7.2151 C.ar      1 <0>        -0.0609
     17 C14         5.8684    2.5919   -7.8087 C.ar      1 <0>        -0.1360
     18 C15         7.1661    3.0935   -7.8541 C.ar      1 <0>         0.1388
     19 C16         8.1972    2.3615   -7.2878 C.ar      1 <0>        -0.1007
     20 C17         7.9258    1.1492   -6.6889 C.ar      1 <0>        -0.1019
     21 S1          8.9340   -0.0618   -5.8731 S.3       1 <0>         0.0985
     22 C18         7.6746   -1.2494   -5.4511 C.2       1 <0>        -0.0542
     23 C19         7.8279   -2.5299   -4.7367 C.ar      1 <0>        -0.0426
     24 C20         7.2342   -3.6902   -5.2423 C.ar      1 <0>        -0.0726
     25 C21         7.3800   -4.8843   -4.5715 C.ar      1 <0>        -0.1417
     26 C22         8.1159   -4.9368   -3.3939 C.ar      1 <0>         0.1259
     27 C23         8.7078   -3.7861   -2.8876 C.ar      1 <0>        -0.1440
     28 C24         8.5722   -2.5886   -3.5547 C.ar      1 <0>        -0.0734
     29 O3          8.2566   -6.1162   -2.7357 O.3       1 <0>        -0.4993
     30 O4          7.4192    4.2895   -8.4485 O.3       1 <0>        -0.4890
     31 N1          0.9192   -1.5477    1.2571 N.4       1 <0>        -0.3938
     32 C25         0.2223   -1.3317    2.5508 C.3       1 <0>        -0.0059
     33 C26         0.7614   -2.4803    3.4400 C.3       1 <0>        -0.1452
     34 C27         0.8707   -3.6622    2.4495 C.3       1 <0>        -0.1433
     35 C28         0.9504   -3.0126    1.0555 C.3       1 <0>        -0.0129
     36 H2          1.1748    0.9910    0.4089 H         1 <0>         0.0899
     37 H3         -0.3986    1.0902   -0.4175 H         1 <0>         0.1057
     38 H4         -0.3324    0.8305    1.3422 H         1 <0>         0.0843
     39 H5          0.9528   -2.2893   -1.2864 H         1 <0>         0.0885
     40 H6          0.2574   -0.8064   -1.9835 H         1 <0>         0.1101
     41 H7          1.3928   -1.9513   -3.3043 H         1 <0>         0.1349
     42 H8          2.7325   -2.2794   -5.3378 H         1 <0>         0.1430
     43 H9          5.9163    0.0102   -3.5955 H         1 <0>         0.1409
     44 H10         4.5632    0.3383   -1.5709 H         1 <0>         0.1404
     45 H11         4.5771    1.0231   -7.1947 H         1 <0>         0.1272
     46 H12         5.0639    3.1617   -8.2498 H         1 <0>         0.1396
     47 H13         9.2090    2.7383   -7.3156 H         1 <0>         0.1433
     48 H14         6.6618   -3.6503   -6.1573 H         1 <0>         0.1342
     49 H15         6.9214   -5.7812   -4.9611 H         1 <0>         0.1371
     50 H16         9.2785   -3.8315   -1.9719 H         1 <0>         0.1376
     51 H17         9.0363   -1.6956   -3.1629 H         1 <0>         0.1350
     52 H18         9.0287   -6.6298   -3.0097 H         1 <0>         0.3989
     53 H19         7.3606    5.0465   -7.8497 H         1 <0>         0.3983
     54 H20         0.4864   -0.3621    2.9729 H         1 <0>         0.1363
     55 H21        -0.8571   -1.4167    2.4252 H         1 <0>         0.1344
     56 H22         1.7402   -2.2262    3.8469 H         1 <0>         0.0985
     57 H23         0.0581   -2.7113    4.2401 H         1 <0>         0.1177
     58 H24         1.7724   -4.2410    2.6492 H         1 <0>         0.1056
     59 H25        -0.0116   -4.2982    2.5206 H         1 <0>         0.1046
     60 H26         0.0973   -3.3226    0.4521 H         1 <0>         0.1296
     61 H27         1.8801   -3.3002    0.5645 H         1 <0>         0.1307
     62 H28         1.8588   -1.1826    1.3017 H         1 <0>         0.4314
@<TRIPOS>BOND
     1    1    2 1
     2    1   36 1
     3    1   37 1
     4    1   38 1
     5    2    3 1
     6    2    4 1
     7    2   31 1
     8    4    5 1
     9    4   39 1
    10    4   40 1
    11    5    6 1
    12    6   11 ar
    13    6    7 ar
    14    7    8 ar
    15    7   41 1
    16    8    9 ar
    17    8   42 1
    18    9   10 ar
    19    9   12 1
    20   10   11 ar
    21   10   43 1
    22   11   44 1
    23   12   13 2
    24   12   14 1
    25   14   22 2
    26   14   15 1
    27   15   20 ar
    28   15   16 ar
    29   16   17 ar
    30   16   45 1
    31   17   18 ar
    32   17   46 1
    33   18   19 ar
    34   18   30 1
    35   19   20 ar
    36   19   47 1
    37   20   21 1
    38   21   22 1
    39   22   23 1
    40   23   28 ar
    41   23   24 ar
    42   24   25 ar
    43   24   48 1
    44   25   26 ar
    45   25   49 1
    46   26   27 ar
    47   26   29 1
    48   27   28 ar
    49   27   50 1
    50   28   51 1
    51   29   52 1
    52   30   53 1
    53   31   35 1
    54   31   32 1
    55   31   62 1
    56   32   33 1
    57   32   54 1
    58   32   55 1
    59   33   34 1
    60   33   56 1
    61   33   57 1
    62   34   35 1
    63   34   58 1
    64   34   59 1
    65   35   60 1
    66   35   61 1
@<TRIPOS>MOLECULE
CHEMBL117286
   45    48     0     0     0
SMALL
USER_CHARGES

@<TRIPOS>ATOM
      1 C1         -0.0168    1.3895    0.0097 C.ar      1 <0>        -0.0924
      2 C2          1.1688    2.0938    0.0021 C.ar      1 <0>        -0.1412
      3 C3          2.3803    1.4161   -0.0135 C.ar      1 <0>         0.1085
      4 C4          2.4023    0.0280   -0.0217 C.ar      1 <0>        -0.1413
      5 C5          1.2198   -0.6817   -0.0142 C.ar      1 <0>        -0.0925
      6 C6          0.0021   -0.0041    0.0020 C.ar      1 <0>        -0.0551
      7 C7         -1.2719   -0.7648    0.0106 C.ar      1 <0>        -0.0342
      8 C8         -2.4876   -0.0866    0.0206 C.ar      1 <0>        -0.1005
      9 C9         -3.6829   -0.8003    0.0286 C.ar      1 <0>        -0.0342
     10 C10        -3.6624   -2.1923    0.0262 C.ar      1 <0>        -0.1005
     11 C11        -2.4467   -2.8706    0.0153 C.ar      1 <0>        -0.0342
     12 C12        -1.2515   -2.1568    0.0029 C.ar      1 <0>        -0.1005
     13 C13        -2.4249   -4.3543    0.0133 C.ar      1 <0>        -0.0551
     14 C14        -3.6207   -5.0702    0.0166 C.ar      1 <0>        -0.0925
     15 C15        -3.5973   -6.4491    0.0147 C.ar      1 <0>        -0.1413
     16 C16        -2.3842   -7.1241    0.0101 C.ar      1 <0>         0.1085
     17 C17        -1.1914   -6.4137    0.0073 C.ar      1 <0>        -0.1412
     18 C18        -1.2086   -5.0347    0.0024 C.ar      1 <0>        -0.0925
     19 O1         -2.3642   -8.4827    0.0088 O.3       1 <0>        -0.4992
     20 C19        -4.9787   -0.0774    0.0402 C.ar      1 <0>        -0.0550
     21 C20        -5.0008    1.3161    0.0373 C.ar      1 <0>        -0.0925
     22 C21        -6.2066    1.9853    0.0482 C.ar      1 <0>        -0.1413
     23 C22        -7.3977    1.2722    0.0624 C.ar      1 <0>         0.1086
     24 C23        -7.3788   -0.1159    0.0658 C.ar      1 <0>        -0.1412
     25 C24        -6.1760   -0.7906    0.0483 C.ar      1 <0>        -0.0925
     26 O2         -8.5842    1.9342    0.0735 O.3       1 <0>        -0.4992
     27 O3          3.5469    2.1127   -0.0214 O.3       1 <0>        -0.4992
     28 H1         -0.9590    1.9172    0.0260 H         1 <0>         0.1299
     29 H2          1.1548    3.1737    0.0081 H         1 <0>         0.1323
     30 H3          3.3462   -0.4966   -0.0342 H         1 <0>         0.1323
     31 H4          1.2375   -1.7615   -0.0212 H         1 <0>         0.1299
     32 H5         -2.5035    0.9933    0.0224 H         1 <0>         0.1306
     33 H6         -4.5897   -2.7460    0.0332 H         1 <0>         0.1306
     34 H7         -0.3084   -2.6830   -0.0093 H         1 <0>         0.1306
     35 H8         -4.5647   -4.5456    0.0209 H         1 <0>         0.1299
     36 H9         -4.5236   -7.0043    0.0173 H         1 <0>         0.1323
     37 H10        -0.2492   -6.9415    0.0045 H         1 <0>         0.1323
     38 H11        -0.2805   -4.4825   -0.0046 H         1 <0>         0.1299
     39 H12        -2.3613   -8.8751   -0.8750 H         1 <0>         0.3928
     40 H13        -4.0745    1.8714    0.0269 H         1 <0>         0.1299
     41 H14        -6.2243    3.0652    0.0459 H         1 <0>         0.1323
     42 H15        -8.3069   -0.6681    0.0776 H         1 <0>         0.1323
     43 H16        -6.1620   -1.8705    0.0460 H         1 <0>         0.1299
     44 H17        -8.9370    2.1239   -0.8066 H         1 <0>         0.3928
     45 H18         3.8933    2.3096    0.8597 H         1 <0>         0.3928
@<TRIPOS>BOND
     1    1    6 ar
     2    1    2 ar
     3    1   28 1
     4    2    3 ar
     5    2   29 1
     6    3    4 ar
     7    3   27 1
     8    4    5 ar
     9    4   30 1
    10    5    6 ar
    11    5   31 1
    12    6    7 1
    13    7   12 ar
    14    7    8 ar
    15    8    9 ar
    16    8   32 1
    17    9   10 ar
    18    9   20 1
    19   10   11 ar
    20   10   33 1
    21   11   12 ar
    22   11   13 1
    23   12   34 1
    24   13   18 ar
    25   13   14 ar
    26   14   15 ar
    27   14   35 1
    28   15   16 ar
    29   15   36 1
    30   16   17 ar
    31   16   19 1
    32   17   18 ar
    33   17   37 1
    34   18   38 1
    35   19   39 1
    36   20   25 ar
    37   20   21 ar
    38   21   22 ar
    39   21   40 1
    40   22   23 ar
    41   22   41 1
    42   23   24 ar
    43   23   26 1
    44   24   25 ar
    45   24   42 1
    46   25   43 1
    47   26   44 1
    48   27   45 1
@<TRIPOS>MOLECULE
CHEMBL65929
   50    54     0     0     0
SMALL
USER_CHARGES

@<TRIPOS>ATOM
      1 C1         -0.1808    2.0490    0.2015 C.3       1 <0>        -0.1315
      2 C2         -0.2837    0.5659   -0.0596 C.2       1 <0>        -0.0538
      3 C3         -0.5176    0.1904   -1.3165 C.2       1 <0>        -0.1606
      4 C4         -0.7297   -1.2405   -1.7144 C.3       1 <0>         0.2151
      5 N1         -0.2067   -2.1503   -0.6971 N.pl3     1 <0>        -0.7322
      6 C5         -0.2018   -1.7944    0.6464 C.ar      1 <0>         0.2275
      7 C6         -0.1309   -0.4279    1.0089 C.ar      1 <0>        -0.0334
      8 C7          0.1430   -0.1332    2.3387 C.ar      1 <0>        -0.0356
      9 C8         -0.1521   -1.1159    3.3342 C.ar      1 <0>        -0.0897
     10 C9         -0.3194   -2.4345    2.9646 C.ar      1 <0>        -0.0536
     11 C10        -0.2854   -2.7736    1.6223 C.ar      1 <0>        -0.1733
     12 C11        -0.2711   -0.6481    4.7328 C.ar      1 <0>        -0.0626
     13 C12        -0.5592   -1.5412    5.7602 C.ar      1 <0>        -0.1171
     14 C13        -0.6712   -1.0838    7.0614 C.ar      1 <0>         0.0843
     15 C14        -0.5008    0.2613    7.3435 C.ar      1 <0>        -0.1216
     16 C15        -0.2116    1.1561    6.3290 C.ar      1 <0>        -0.0981
     17 C16        -0.0889    0.7108    5.0241 C.ar      1 <0>         0.1015
     18 O1          0.2197    1.5932    4.0319 O.3       1 <0>        -0.2282
     19 C17         0.7816    1.0594    2.8964 C.2       1 <0>         0.1962
     20 C18         1.9264    1.5788    2.3916 C.2       1 <0>        -0.1759
     21 S1          2.8265    0.7491    1.1111 S.3       1 <0>        -0.0748
     22 C19         3.1074    2.0700   -0.1042 C.3       1 <0>        -0.1248
     23 C20         3.8412    3.2321    0.5578 C.3       1 <0>        -0.1268
     24 C21         2.9028    4.0348    1.4536 C.3       1 <0>        -0.1132
     25 S2          2.5767    3.1174    2.9815 S.3       1 <0>        -0.1018
     26 F1         -0.9453   -1.9522    8.0597 F         1 <0>        -0.1350
     27 C22        -2.2300   -1.4960   -1.9008 C.3       1 <0>        -0.1607
     28 C23        -0.0155   -1.5053   -3.0450 C.3       1 <0>        -0.1546
     29 H1          0.7682    2.2667    0.6915 H         1 <0>         0.0689
     30 H2         -0.2339    2.5888   -0.7439 H         1 <0>         0.0677
     31 H3         -1.0025    2.3624    0.8454 H         1 <0>         0.0719
     32 H4         -0.5523    0.9592   -2.0819 H         1 <0>         0.1262
     33 H5          0.1463   -3.0239   -0.9645 H         1 <0>         0.4058
     34 H6         -0.4755   -3.1990    3.7106 H         1 <0>         0.1348
     35 H7         -0.3243   -3.8136    1.3307 H         1 <0>         0.1318
     36 H8         -0.6960   -2.5904    5.5446 H         1 <0>         0.1442
     37 H9         -0.5944    0.6134    8.3597 H         1 <0>         0.1482
     38 H10        -0.0825    2.2044    6.5557 H         1 <0>         0.1491
     39 H11         3.7084    1.6835   -0.9273 H         1 <0>         0.1169
     40 H12         2.1489    2.4185   -0.4888 H         1 <0>         0.0938
     41 H13         4.6619    2.8408    1.1591 H         1 <0>         0.0917
     42 H14         4.2452    3.8865   -0.2145 H         1 <0>         0.0887
     43 H15         3.3640    4.9922    1.6961 H         1 <0>         0.1203
     44 H16         1.9626    4.2084    0.9303 H         1 <0>         0.0874
     45 H17        -2.6164   -0.8389   -2.6800 H         1 <0>         0.0668
     46 H18        -2.3885   -2.5349   -2.1900 H         1 <0>         0.0620
     47 H19        -2.7517   -1.2957   -0.9649 H         1 <0>         0.0571
     48 H20         1.0510   -1.3121   -2.9297 H         1 <0>         0.0637
     49 H21        -0.1669   -2.5442   -3.3382 H         1 <0>         0.0639
     50 H22        -0.4229   -0.8480   -3.8132 H         1 <0>         0.0734
@<TRIPOS>BOND
     1    1    2 1
     2    1   29 1
     3    1   30 1
     4    1   31 1
     5    2    7 1
     6    2    3 2
     7    3    4 1
     8    3   32 1
     9    4    5 1
    10    4   27 1
    11    4   28 1
    12    5    6 1
    13    5   33 1
    14    6   11 ar
    15    6    7 ar
    16    7    8 ar
    17    8   19 1
    18    8    9 ar
    19    9   10 ar
    20    9   12 1
    21   10   11 ar
    22   10   34 1
    23   11   35 1
    24   12   17 ar
    25   12   13 ar
    26   13   14 ar
    27   13   36 1
    28   14   15 ar
    29   14   26 1
    30   15   16 ar
    31   15   37 1
    32   16   17 ar
    33   16   38 1
    34   17   18 1
    35   18   19 1
    36   19   20 2
    37   20   25 1
    38   20   21 1
    39   21   22 1
    40   22   23 1
    41   22   39 1
    42   22   40 1
    43   23   24 1
    44   23   41 1
    45   23   42 1
    46   24   25 1
    47   24   43 1
    48   24   44 1
    49   27   45 1
    50   27   46 1
    51   27   47 1
    52   28   48 1
    53   28   49 1
    54   28   50 1
@<TRIPOS>MOLECULE
CHEMBL93586
   61    65     0     0     0
SMALL
USER_CHARGES

@<TRIPOS>ATOM
      1 C1          0.0352    1.4290   -0.0156 C.ar      1 <0>        -0.1141
      2 C2          0.0643    0.1089   -0.4250 C.ar      1 <0>        -0.1195
      3 C3          1.2596   -0.5853   -0.4352 C.ar      1 <0>        -0.1028
      4 C4          2.4259    0.0406   -0.0365 C.ar      1 <0>        -0.0963
      5 C5          2.3969    1.3608    0.3721 C.ar      1 <0>        -0.1059
      6 C6          1.2013    2.0547    0.3836 C.ar      1 <0>        -0.1172
      7 C7          3.7288   -0.7166   -0.0467 C.3       1 <0>         0.2356
      8 C8          3.9668   -1.2874   -1.4224 C.ar      1 <0>        -0.0969
      9 C9          4.2946   -0.4027   -2.4416 C.ar      1 <0>        -0.0874
     10 C10         4.5144   -0.8599   -3.7235 C.ar      1 <0>        -0.1443
     11 C11         4.4057   -2.2159   -3.9971 C.ar      1 <0>         0.1123
     12 C12         4.0829   -3.0971   -2.9798 C.ar      1 <0>        -0.1472
     13 C13         3.8678   -2.6351   -1.6877 C.ar      1 <0>        -0.0483
     14 C14         3.5474   -3.6553   -0.6270 C.3       1 <0>        -0.1009
     15 C15         2.8809   -2.9952    0.5789 C.3       1 <0>         0.1077
     16 N1          3.6690   -1.8040    0.9359 N.pl3     1 <0>        -0.6105
     17 C16         4.3310   -1.7136    2.1561 C.ar      1 <0>         0.2466
     18 C17         4.9614   -0.5258    2.5175 C.ar      1 <0>        -0.2023
     19 C18         5.6153   -0.4325    3.7189 C.ar      1 <0>        -0.0355
     20 C19         5.6482   -1.5338    4.5832 C.ar      1 <0>        -0.1477
     21 C20         5.0125   -2.7262    4.2160 C.ar      1 <0>        -0.0423
     22 C21         4.3564   -2.8092    3.0150 C.ar      1 <0>        -0.2027
     23 C22         6.3481   -1.4386    5.8715 C.2       1 <0>         0.0119
     24 C23         6.3787   -2.5018    6.7035 C.2       1 <0>        -0.2468
     25 C24         7.0752   -2.4071    7.9854 C.2       1 <0>         0.5550
     26 O1          7.5463   -1.3438    8.3450 O.2       1 <0>        -0.5463
     27 N2          7.1956   -3.4970    8.7691 N.am      1 <0>        -0.6165
     28 C25         6.5479   -4.7671    8.4049 C.3       1 <0>         0.0710
     29 C26         7.5955   -5.8836    8.4818 C.3       1 <0>         0.0454
     30 O2          8.2360   -5.8409    9.7592 O.3       1 <0>        -0.3785
     31 C27         8.9571   -4.6327   10.0123 C.3       1 <0>         0.0474
     32 C28         7.9839   -3.4537   10.0109 C.3       1 <0>         0.0770
     33 O3          4.6147   -2.6766   -5.2584 O.3       1 <0>        -0.4989
     34 H1         -0.8980    1.9727   -0.0119 H         1 <0>         0.1228
     35 H2         -0.8469   -0.3800   -0.7366 H         1 <0>         0.1225
     36 H3          1.2822   -1.6168   -0.7544 H         1 <0>         0.1223
     37 H4          3.3080    1.8497    0.6839 H         1 <0>         0.1217
     38 H5          1.1786    3.0861    0.7032 H         1 <0>         0.1242
     39 H6          4.5436   -0.0398    0.2105 H         1 <0>         0.1056
     40 H7          4.3776    0.6527   -2.2282 H         1 <0>         0.1276
     41 H8          4.7696   -0.1661   -4.5108 H         1 <0>         0.1314
     42 H9          3.9977   -4.1525   -3.1923 H         1 <0>         0.1293
     43 H10         2.8744   -4.4053   -1.0427 H         1 <0>         0.0883
     44 H11         4.4692   -4.1405   -0.3062 H         1 <0>         0.0851
     45 H12         1.8632   -2.7009    0.3225 H         1 <0>         0.0797
     46 H13         2.8640   -3.6912    1.4177 H         1 <0>         0.0939
     47 H14         4.9356    0.3231    1.8504 H         1 <0>         0.1238
     48 H15         6.1046    0.4888    3.9982 H         1 <0>         0.1278
     49 H16         5.0358   -3.5781    4.8795 H         1 <0>         0.1250
     50 H17         3.8621   -3.7271    2.7329 H         1 <0>         0.1268
     51 H18         6.8382   -0.5183    6.1530 H         1 <0>         0.1319
     52 H19         5.8886   -3.4221    6.4219 H         1 <0>         0.1290
     53 H20         5.7354   -4.9775    9.1005 H         1 <0>         0.0798
     54 H21         6.1553   -4.7013    7.3902 H         1 <0>         0.0981
     55 H22         7.1081   -6.8497    8.3510 H         1 <0>         0.1081
     56 H23         8.3383   -5.7405    7.6971 H         1 <0>         0.0575
     57 H24         9.4494   -4.6989   10.9825 H         1 <0>         0.1089
     58 H25         9.7049   -4.4850    9.2331 H         1 <0>         0.0563
     59 H26         8.5418   -2.5186   10.0592 H         1 <0>         0.1023
     60 H27         7.3185   -3.5296   10.8709 H         1 <0>         0.0762
     61 H28         5.5335   -2.9152   -5.4427 H         1 <0>         0.3925
@<TRIPOS>BOND
     1    1    6 ar
     2    1    2 ar
     3    1   34 1
     4    2    3 ar
     5    2   35 1
     6    3    4 ar
     7    3   36 1
     8    4    5 ar
     9    4    7 1
    10    5    6 ar
    11    5   37 1
    12    6   38 1
    13    7   16 1
    14    7    8 1
    15    7   39 1
    16    8   13 ar
    17    8    9 ar
    18    9   10 ar
    19    9   40 1
    20   10   11 ar
    21   10   41 1
    22   11   12 ar
    23   11   33 1
    24   12   13 ar
    25   12   42 1
    26   13   14 1
    27   14   15 1
    28   14   43 1
    29   14   44 1
    30   15   16 1
    31   15   45 1
    32   15   46 1
    33   16   17 1
    34   17   22 ar
    35   17   18 ar
    36   18   19 ar
    37   18   47 1
    38   19   20 ar
    39   19   48 1
    40   20   21 ar
    41   20   23 1
    42   21   22 ar
    43   21   49 1
    44   22   50 1
    45   23   24 2
    46   23   51 1
    47   24   25 1
    48   24   52 1
    49   25   26 2
    50   25   27 am
    51   27   32 1
    52   27   28 1
    53   28   29 1
    54   28   53 1
    55   28   54 1
    56   29   30 1
    57   29   55 1
    58   29   56 1
    59   30   31 1
    60   31   32 1
    61   31   57 1
    62   31   58 1
    63   32   59 1
    64   32   60 1
    65   33   61 1
@<TRIPOS>MOLECULE
CHEMBL93586__1
   61    65     0     0     0
SMALL
USER_CHARGES

@<TRIPOS>ATOM
      1 C1          1.3242    2.0222    0.5747 C.ar      1 <0>        -0.1144
      2 C2          1.0417    0.7396    1.0062 C.ar      1 <0>        -0.1199
      3 C3          1.9945   -0.2549    0.8880 C.ar      1 <0>        -0.1032
      4 C4          3.2295    0.0329    0.3378 C.ar      1 <0>        -0.0955
      5 C5          3.5116    1.3152   -0.0946 C.ar      1 <0>        -0.1057
      6 C6          2.5594    2.3101    0.0249 C.ar      1 <0>        -0.1170
      7 C7          4.2685   -1.0511    0.2098 C.3       1 <0>         0.2352
      8 C8          4.5037   -1.6827    1.5591 C.ar      1 <0>        -0.0967
      9 C9          5.1787   -0.9342    2.5146 C.ar      1 <0>        -0.0874
     10 C10         5.4163   -1.4503    3.7707 C.ar      1 <0>        -0.1443
     11 C11         4.9756   -2.7286    4.0825 C.ar      1 <0>         0.1124
     12 C12         4.3066   -3.4752    3.1283 C.ar      1 <0>        -0.1473
     13 C13         4.0735   -2.9556    1.8614 C.ar      1 <0>        -0.0483
     14 C14         3.3637   -3.8360    0.8668 C.3       1 <0>        -0.1011
     15 C15         2.7639   -3.0037   -0.2654 C.3       1 <0>         0.1081
     16 N1          3.7985   -2.0683   -0.7367 N.pl3     1 <0>        -0.6106
     17 C16         4.3103   -2.1464   -2.0280 C.ar      1 <0>         0.2465
     18 C17         5.2056   -1.1803   -2.4795 C.ar      1 <0>        -0.2023
     19 C18         5.7120   -1.2532   -3.7514 C.ar      1 <0>        -0.0354
     20 C19         5.3279   -2.3014   -4.5967 C.ar      1 <0>        -0.1476
     21 C20         4.4276   -3.2711   -4.1385 C.ar      1 <0>        -0.0423
     22 C21         3.9301   -3.1935   -2.8633 C.ar      1 <0>        -0.2027
     23 C22         5.8677   -2.3833   -5.9608 C.2       1 <0>         0.0121
     24 C23         5.4960   -3.3950   -6.7744 C.2       1 <0>        -0.2468
     25 C24         6.0331   -3.4764   -8.1317 C.2       1 <0>         0.5550
     26 O1          6.7630   -2.5972   -8.5512 O.2       1 <0>        -0.5466
     27 N2          5.7200   -4.5250   -8.9184 N.am      1 <0>        -0.6163
     28 C25         4.9069   -5.6397   -8.4069 C.3       1 <0>         0.0711
     29 C26         3.7622   -5.8958   -9.3938 C.3       1 <0>         0.0453
     30 O2          4.3007   -6.0539  -10.7086 O.3       1 <0>        -0.3784
     31 C27         4.9739   -4.8960  -11.2084 C.3       1 <0>         0.0474
     32 C28         6.1760   -4.5860  -10.3162 C.3       1 <0>         0.0767
     33 O3          5.2003   -3.2453    5.3192 O.3       1 <0>        -0.4988
     34 H1          0.5782    2.7982    0.6629 H         1 <0>         0.1227
     35 H2          0.0768    0.5147    1.4361 H         1 <0>         0.1223
     36 H3          1.7740   -1.2568    1.2258 H         1 <0>         0.1222
     37 H4          4.4767    1.5402   -0.5241 H         1 <0>         0.1218
     38 H5          2.7800    3.3121   -0.3125 H         1 <0>         0.1242
     39 H6          5.2003   -0.6191   -0.1551 H         1 <0>         0.1058
     40 H7          5.5208    0.0609    2.2713 H         1 <0>         0.1276
     41 H8          5.9431   -0.8629    4.5081 H         1 <0>         0.1315
     42 H9          3.9629   -4.4699    3.3707 H         1 <0>         0.1293
     43 H10         4.0736   -4.5501    0.4495 H         1 <0>         0.0855
     44 H11         2.5662   -4.3791    1.3738 H         1 <0>         0.0882
     45 H12         2.4585   -3.6579   -1.0821 H         1 <0>         0.0938
     46 H13         1.9028   -2.4462    0.1030 H         1 <0>         0.0794
     47 H14         5.5013   -0.3721   -1.8268 H         1 <0>         0.1238
     48 H15         6.4059   -0.5030   -4.1010 H         1 <0>         0.1279
     49 H16         4.1285   -4.0809   -4.7874 H         1 <0>         0.1251
     50 H17         3.2391   -3.9434   -2.5076 H         1 <0>         0.1268
     51 H18         6.5617   -1.6344   -6.3128 H         1 <0>         0.1321
     52 H19         4.8020   -4.1439   -6.4224 H         1 <0>         0.1290
     53 H20         5.5237   -6.5342   -8.3199 H         1 <0>         0.0799
     54 H21         4.4985   -5.3784   -7.4307 H         1 <0>         0.0981
     55 H22         3.2301   -6.8028   -9.1068 H         1 <0>         0.1082
     56 H23         3.0746   -5.0501   -9.3812 H         1 <0>         0.0574
     57 H24         5.3137   -5.0837  -12.2270 H         1 <0>         0.1089
     58 H25         4.2908   -4.0467  -11.2024 H         1 <0>         0.0564
     59 H26         6.6077   -3.6273  -10.6037 H         1 <0>         0.1025
     60 H27         6.9227   -5.3727  -10.4247 H         1 <0>         0.0762
     61 H28         4.4962   -3.0616    5.9561 H         1 <0>         0.3924
@<TRIPOS>BOND
     1    1    6 ar
     2    1    2 ar
     3    1   34 1
     4    2    3 ar
     5    2   35 1
     6    3    4 ar
     7    3   36 1
     8    4    5 ar
     9    4    7 1
    10    5    6 ar
    11    5   37 1
    12    6   38 1
    13    7   16 1
    14    7    8 1
    15    7   39 1
    16    8   13 ar
    17    8    9 ar
    18    9   10 ar
    19    9   40 1
    20   10   11 ar
    21   10   41 1
    22   11   12 ar
    23   11   33 1
    24   12   13 ar
    25   12   42 1
    26   13   14 1
    27   14   15 1
    28   14   43 1
    29   14   44 1
    30   15   16 1
    31   15   45 1
    32   15   46 1
    33   16   17 1
    34   17   22 ar
    35   17   18 ar
    36   18   19 ar
    37   18   47 1
    38   19   20 ar
    39   19   48 1
    40   20   21 ar
    41   20   23 1
    42   21   22 ar
    43   21   49 1
    44   22   50 1
    45   23   24 2
    46   23   51 1
    47   24   25 1
    48   24   52 1
    49   25   26 2
    50   25   27 am
    51   27   32 1
    52   27   28 1
    53   28   29 1
    54   28   53 1
    55   28   54 1
    56   29   30 1
    57   29   55 1
    58   29   56 1
    59   30   31 1
    60   31   32 1
    61   31   57 1
    62   31   58 1
    63   32   59 1
    64   32   60 1
    65   33   61 1
@<TRIPOS>MOLECULE
CHEMBL183685
   65    70     0     0     0
SMALL
USER_CHARGES

@<TRIPOS>ATOM
      1 C1          0.2392    0.7550    0.7880 C.ar      1 <0>        -0.0727
      2 C2          1.3759    1.5346    0.7844 C.ar      1 <0>        -0.1337
      3 C3          2.4920    1.1351    0.0609 C.ar      1 <0>         0.1128
      4 C4          2.4680   -0.0510   -0.6613 C.ar      1 <0>        -0.1958
      5 C5          1.3352   -0.8363   -0.6628 C.ar      1 <0>        -0.0715
      6 C6          0.2110   -0.4381    0.0633 C.ar      1 <0>        -0.0426
      7 C7         -1.0061   -1.2778    0.0648 C.ar      1 <0>        -0.0491
      8 C8         -1.1799   -2.2754    1.0448 C.ar      1 <0>        -0.0120
      9 C9         -0.2174   -2.5053    2.0397 C.ar      1 <0>        -0.1417
     10 C10        -0.4305   -3.4843    2.9677 C.ar      1 <0>         0.1240
     11 C11        -1.5888   -4.2669    2.9516 C.ar      1 <0>        -0.1417
     12 C12        -2.5547   -4.0903    2.0128 C.ar      1 <0>        -0.0764
     13 C13        -2.3932   -3.0953    1.0280 C.ar      1 <0>        -0.0629
     14 C14        -3.3595   -2.8778    0.0433 C.ar      1 <0>        -0.0670
     15 C15        -3.1672   -1.8858   -0.9161 C.ar      1 <0>        -0.0527
     16 C16        -1.9977   -1.0845   -0.9033 C.ar      1 <0>        -0.0024
     17 C17        -1.8324   -0.0448   -1.9273 C.ar      1 <0>        -0.0549
     18 C18        -0.6914    0.7617   -1.9512 C.ar      1 <0>        -0.1277
     19 C19        -0.5560    1.7224   -2.9113 C.ar      1 <0>        -0.1417
     20 C20        -1.5467    1.9107   -3.8739 C.ar      1 <0>         0.1137
     21 C21        -2.6837    1.1284   -3.8737 C.ar      1 <0>        -0.1332
     22 C22        -2.8414    0.1372   -2.8969 C.ar      1 <0>        -0.0258
     23 C23        -4.0340   -0.7044   -2.8751 C.ar      1 <0>        -0.1059
     24 C24        -4.1853   -1.6655   -1.9436 C.ar      1 <0>        -0.0972
     25 O1         -1.3917    2.8733   -4.8205 O.3       1 <0>        -0.4984
     26 O2          0.5049   -3.7029    3.9286 O.3       1 <0>        -0.5006
     27 O3          3.6102    1.9068    0.0591 O.3       1 <0>        -0.3254
     28 C25         4.7217    1.4367   -0.7060 C.3       1 <0>         0.0241
     29 C26         5.8792    2.4302   -0.5876 C.3       1 <0>        -0.0012
     30 N1          6.3499    2.4701    0.8033 N.4       1 <0>        -0.3843
     31 C27         7.3480    3.5364    0.9502 C.3       1 <0>        -0.0071
     32 C28         7.7821    3.6358    2.4141 C.3       1 <0>        -0.1467
     33 C29         8.3910    2.3006    2.8521 C.3       1 <0>        -0.1390
     34 C30         7.3670    1.1848    2.6249 C.3       1 <0>        -0.1453
     35 C31         6.9483    1.1762    1.1531 C.3       1 <0>        -0.0134
     36 H1         -0.6269    1.0644    1.3542 H         1 <0>         0.1411
     37 H2          1.3986    2.4576    1.3447 H         1 <0>         0.1390
     38 H3          3.3379   -0.3582   -1.2227 H         1 <0>         0.1328
     39 H4          1.3170   -1.7581   -1.2252 H         1 <0>         0.1363
     40 H5          0.6851   -1.9129    2.0711 H         1 <0>         0.1311
     41 H6         -1.7187   -5.0309    3.7038 H         1 <0>         0.1335
     42 H7         -3.4405   -4.7081    2.0214 H         1 <0>         0.1393
     43 H8         -4.2563   -3.4792    0.0252 H         1 <0>         0.1404
     44 H9          0.0825    0.6251   -1.2104 H         1 <0>         0.1670
     45 H10         0.3276    2.3432   -2.9252 H         1 <0>         0.1247
     46 H11        -3.4471    1.2794   -4.6226 H         1 <0>         0.1374
     47 H12        -4.8021   -0.5593   -3.6203 H         1 <0>         0.1345
     48 H13        -5.0769   -2.2749   -1.9481 H         1 <0>         0.1361
     49 H14        -0.9450    2.5684   -5.6221 H         1 <0>         0.3930
     50 H15         0.3732   -3.1809    4.7318 H         1 <0>         0.3936
     51 H16         5.0376    0.4642   -0.3282 H         1 <0>         0.0873
     52 H17         4.4292    1.3426   -1.7518 H         1 <0>         0.1102
     53 H18         6.6953    2.1166   -1.2385 H         1 <0>         0.1493
     54 H19         5.5383    3.4221   -0.8844 H         1 <0>         0.1431
     55 H20         8.2147    3.3101    0.3292 H         1 <0>         0.1292
     56 H21         6.9141    4.4854    0.6351 H         1 <0>         0.1312
     57 H22         8.5244    4.4268    2.5207 H         1 <0>         0.1131
     58 H23         6.9161    3.8623    3.0360 H         1 <0>         0.0880
     59 H24         9.2868    2.0984    2.2648 H         1 <0>         0.0821
     60 H25         8.6502    2.3477    3.9098 H         1 <0>         0.0947
     61 H26         7.8127    0.2239    2.8821 H         1 <0>         0.1124
     62 H27         6.4924    1.3604    3.2511 H         1 <0>         0.0879
     63 H28         6.2194    0.3828    0.9878 H         1 <0>         0.1275
     64 H29         7.8236    1.0003    0.5278 H         1 <0>         0.1303
     65 H30         5.5700    2.6555    1.4161 H         1 <0>         0.4293
@<TRIPOS>BOND
     1    1    6 ar
     2    1    2 ar
     3    1   36 1
     4    2    3 ar
     5    2   37 1
     6    3    4 ar
     7    3   27 1
     8    4    5 ar
     9    4   38 1
    10    5    6 ar
    11    5   39 1
    12    6    7 1
    13    7   16 ar
    14    7    8 ar
    15    8   13 ar
    16    8    9 ar
    17    9   10 ar
    18    9   40 1
    19   10   11 ar
    20   10   26 1
    21   11   12 ar
    22   11   41 1
    23   12   13 ar
    24   12   42 1
    25   13   14 ar
    26   14   15 ar
    27   14   43 1
    28   15   24 ar
    29   15   16 ar
    30   16   17 ar
    31   17   22 ar
    32   17   18 ar
    33   18   19 ar
    34   18   44 1
    35   19   20 ar
    36   19   45 1
    37   20   21 ar
    38   20   25 1
    39   21   22 ar
    40   21   46 1
    41   22   23 ar
    42   23   24 ar
    43   23   47 1
    44   24   48 1
    45   25   49 1
    46   26   50 1
    47   27   28 1
    48   28   29 1
    49   28   51 1
    50   28   52 1
    51   29   30 1
    52   29   53 1
    53   29   54 1
    54   30   35 1
    55   30   31 1
    56   30   65 1
    57   31   32 1
    58   31   55 1
    59   31   56 1
    60   32   33 1
    61   32   57 1
    62   32   58 1
    63   33   34 1
    64   33   59 1
    65   33   60 1
    66   34   35 1
    67   34   61 1
    68   34   62 1
    69   35   63 1
    70   35   64 1
@<TRIPOS>MOLECULE
CHEMBL153395
   69    73     0     0     0
SMALL
USER_CHARGES

@<TRIPOS>ATOM
      1 C1         -0.0178    1.4608    0.0101 C.3       1 <0>         0.0501
      2 N1          0.0021   -0.0041    0.0020 N.pl3     1 <0>        -0.5369
      3 C2          0.0241   -0.7433    1.2666 C.3       1 <0>         0.1455
      4 C3         -1.4105   -1.0203    1.7205 C.3       1 <0>        -0.1698
      5 H1         -2.1456   -1.1187    0.9218 H         1 <0>         0.1094
      6 C4         -1.8728   -0.3803    3.0311 C.3       1 <0>        -0.1671
      7 C5         -1.6023   -1.8856    2.9677 C.3       1 <0>        -0.0902
      8 H2         -2.4637   -2.5531    2.9895 H         1 <0>         0.1198
      9 C6         -0.3636   -2.3999    3.6549 C.ar      1 <0>        -0.0655
     10 C7          0.5660   -1.5106    4.1605 C.ar      1 <0>        -0.1267
     11 C8          1.7022   -1.9823    4.7909 C.ar      1 <0>        -0.1099
     12 C9          1.9085   -3.3434    4.9161 C.ar      1 <0>        -0.1148
     13 C10         0.9784   -4.2328    4.4113 C.ar      1 <0>        -0.1138
     14 C11        -0.1599   -3.7610    3.7847 C.ar      1 <0>        -0.1135
     15 C12         0.0000   -0.6876   -1.1969 C.ar      1 <0>         0.6874
     16 N2         -0.0145   -0.0167   -2.3446 N.ar      1 <0>        -0.6342
     17 C13        -0.0165   -0.6751   -3.4993 C.ar      1 <0>         0.6999
     18 N3         -0.0039   -2.0045   -3.5066 N.ar      1 <0>        -0.6262
     19 C14         0.0110   -2.6753   -2.3592 C.ar      1 <0>         0.6910
     20 N4          0.0180   -2.0167   -1.2042 N.ar      1 <0>        -0.6169
     21 N5          0.0236   -4.0553   -2.3667 N.pl3     1 <0>        -0.5679
     22 C15         0.0340   -4.8185   -1.1091 C.3       1 <0>         0.0918
     23 C16        -1.0770   -5.8719   -1.1711 C.3       1 <0>        -0.0219
     24 N6         -0.9073   -6.6905   -2.3782 N.4       1 <0>        -0.5088
     25 C17        -1.0843   -5.8589   -3.5753 C.3       1 <0>        -0.0214
     26 C18         0.0207   -4.8048   -3.6325 C.3       1 <0>         0.0918
     27 N7         -0.0320    0.0214   -4.6907 N.pl3     1 <0>        -0.6500
     28 C19        -0.0463    1.4863   -4.6827 C.3       1 <0>         0.0875
     29 C20        -0.0619    2.0041   -6.1224 C.3       1 <0>        -0.0827
     30 C21        -0.0766    3.5110   -6.1141 C.ar      1 <0>        -0.1180
     31 C22        -1.2813    4.1893   -6.0959 C.ar      1 <0>        -0.0932
     32 C23        -1.2975    5.5706   -6.0887 C.ar      1 <0>        -0.1428
     33 C24        -0.1036    6.2772   -6.0994 C.ar      1 <0>         0.1241
     34 C25         1.1038    5.5943   -6.1173 C.ar      1 <0>        -0.1424
     35 C26         1.1146    4.2128   -6.1191 C.ar      1 <0>        -0.0928
     36 O1         -0.1169    7.6362   -6.0929 O.3       1 <0>        -0.4957
     37 H3          1.0048    1.8381    0.0023 H         1 <0>         0.0966
     38 H4         -0.5450    1.8219   -0.8730 H         1 <0>         0.0768
     39 H5         -0.5280    1.8123    0.9069 H         1 <0>         0.1200
     40 H6          0.5496   -1.6879    1.1262 H         1 <0>         0.1114
     41 H7          0.5371   -0.1514    2.0246 H         1 <0>         0.1093
     42 H8         -1.1549    0.2380    3.5700 H         1 <0>         0.1070
     43 H9         -2.9121   -0.0581    3.0947 H         1 <0>         0.1079
     44 H10         0.4049   -0.4471    4.0627 H         1 <0>         0.1215
     45 H11         2.4289   -1.2875    5.1853 H         1 <0>         0.1269
     46 H12         2.7966   -3.7120    5.4080 H         1 <0>         0.1270
     47 H13         1.1398   -5.2962    4.5089 H         1 <0>         0.1254
     48 H14        -0.8883   -4.4558    3.3936 H         1 <0>         0.1198
     49 H15         0.9990   -5.3106   -0.9873 H         1 <0>         0.1124
     50 H16        -0.1457   -4.1455   -0.2707 H         1 <0>         0.1486
     51 H17        -1.0226   -6.5098   -0.2888 H         1 <0>         0.1578
     52 H18        -2.0470   -5.3758   -1.2018 H         1 <0>         0.1386
     53 H19         0.0182   -7.0924   -2.3832 H         1 <0>         0.4332
     54 H20        -1.0353   -6.4871   -4.4648 H         1 <0>         0.1584
     55 H21        -2.0541   -5.3631   -3.5333 H         1 <0>         0.1383
     56 H22        -0.1678   -4.1228   -4.4616 H         1 <0>         0.1478
     57 H23         0.9842   -5.2955   -3.7698 H         1 <0>         0.1122
     58 H24        -0.0334   -0.4590   -5.5334 H         1 <0>         0.4464
     59 H25        -0.9360    1.8381   -4.1604 H         1 <0>         0.0920
     60 H26         0.8438    1.8556   -4.1734 H         1 <0>         0.0928
     61 H27         0.8278    1.6523   -6.6447 H         1 <0>         0.0941
     62 H28        -0.9520    1.6348   -6.6317 H         1 <0>         0.0937
     63 H29        -2.2104    3.6388   -6.0876 H         1 <0>         0.1278
     64 H30        -2.2387    6.1000   -6.0752 H         1 <0>         0.1354
     65 H31         2.0345    6.1421   -6.1256 H         1 <0>         0.1357
     66 H32         2.0544    3.6807   -6.1285 H         1 <0>         0.1284
     67 H33        -0.1104    8.0253   -5.2077 H         1 <0>         0.3984
     68 H34        -0.0240    0.9532   -2.3393 H         1 <0>         0.4405
     69 H35        -1.5928   -7.4309   -2.3801 H         1 <0>         0.4424
@<TRIPOS>BOND
     1    1    2 1
     2    1   37 1
     3    1   38 1
     4    1   39 1
     5    2    3 1
     6    2   15 1
     7    3    4 1
     8    3   40 1
     9    3   41 1
    10    4    5 1
    11    4    7 1
    12    4    6 1
    13    6    7 1
    14    6   42 1
    15    6   43 1
    16    7    8 1
    17    7    9 1
    18    9   14 ar
    19    9   10 ar
    20   10   11 ar
    21   10   44 1
    22   11   12 ar
    23   11   45 1
    24   12   13 ar
    25   12   46 1
    26   13   14 ar
    27   13   47 1
    28   14   48 1
    29   15   20 ar
    30   15   16 ar
    31   16   17 ar
    32   16   68 1
    33   17   18 ar
    34   17   27 1
    35   18   19 ar
    36   19   20 ar
    37   19   21 1
    38   21   26 1
    39   21   22 1
    40   22   23 1
    41   22   49 1
    42   22   50 1
    43   23   24 1
    44   23   51 1
    45   23   52 1
    46   24   25 1
    47   24   53 1
    48   24   69 1
    49   25   26 1
    50   25   54 1
    51   25   55 1
    52   26   56 1
    53   26   57 1
    54   27   28 1
    55   27   58 1
    56   28   29 1
    57   28   59 1
    58   28   60 1
    59   29   30 1
    60   29   61 1
    61   29   62 1
    62   30   35 ar
    63   30   31 ar
    64   31   32 ar
    65   31   63 1
    66   32   33 ar
    67   32   64 1
    68   33   34 ar
    69   33   36 1
    70   34   35 ar
    71   34   65 1
    72   35   66 1
    73   36   67 1
@<TRIPOS>MOLECULE
CHEMBL153395__1
   68    72     0     0     0
SMALL
USER_CHARGES

@<TRIPOS>ATOM
      1 C1         -0.0178    1.4608    0.0101 C.3       1 <0>         0.0992
      2 N1          0.0021   -0.0041    0.0020 N.pl3     1 <0>        -0.5676
      3 C2          0.0241   -0.7433    1.2666 C.3       1 <0>         0.1617
      4 C3         -1.4105   -1.0203    1.7205 C.3       1 <0>        -0.1498
      5 H1         -2.1456   -1.1187    0.9218 H         1 <0>         0.1054
      6 C4         -1.8728   -0.3803    3.0311 C.3       1 <0>        -0.1728
      7 C5         -1.6023   -1.8856    2.9677 C.3       1 <0>        -0.1026
      8 H2         -2.4637   -2.5531    2.9895 H         1 <0>         0.1141
      9 C6         -0.3636   -2.3999    3.6549 C.ar      1 <0>        -0.0513
     10 C7          0.5660   -1.5106    4.1605 C.ar      1 <0>        -0.1249
     11 C8          1.7022   -1.9823    4.7909 C.ar      1 <0>        -0.1153
     12 C9          1.9085   -3.3434    4.9161 C.ar      1 <0>        -0.1220
     13 C10         0.9784   -4.2328    4.4113 C.ar      1 <0>        -0.1126
     14 C11        -0.1599   -3.7610    3.7847 C.ar      1 <0>        -0.1080
     15 C12         0.0000   -0.6876   -1.1969 C.ar      1 <0>         0.6572
     16 N2          0.0126   -2.0171   -1.2042 N.ar      1 <0>        -0.6559
     17 C13         0.0106   -2.6754   -2.3589 C.ar      1 <0>         0.6583
     18 N3         -0.0039   -2.0045   -3.5066 N.ar      1 <0>        -0.6818
     19 C14        -0.0169   -0.6754   -3.4993 C.ar      1 <0>         0.6540
     20 N4         -0.0200   -0.0169   -2.3443 N.ar      1 <0>        -0.6770
     21 N5         -0.0315    0.0211   -4.6907 N.pl3     1 <0>        -0.5988
     22 C15        -0.0398    1.4921   -4.7069 C.3       1 <0>         0.1066
     23 C16         1.0694    1.9737   -5.6479 C.3       1 <0>        -0.0218
     24 N6          0.8954    1.3521   -6.9667 N.4       1 <0>        -0.5056
     25 C17         1.0705   -0.1019   -6.8613 C.3       1 <0>        -0.0214
     26 C18        -0.0330   -0.6864   -5.9805 C.3       1 <0>         0.1059
     27 N7          0.0241   -4.0554   -2.3664 N.pl3     1 <0>        -0.6825
     28 C19         0.0405   -4.7947   -1.1018 C.3       1 <0>         0.1422
     29 C20         0.0532   -6.2974   -1.3895 C.3       1 <0>        -0.0913
     30 C21         0.0701   -7.0579   -0.0886 C.ar      1 <0>        -0.0945
     31 C22         1.2759   -7.3895    0.5013 C.ar      1 <0>        -0.0938
     32 C23         1.2941   -8.0869    1.6936 C.ar      1 <0>        -0.1421
     33 C24         0.1013   -8.4543    2.2993 C.ar      1 <0>         0.1098
     34 C25        -1.1072   -8.1200    1.7056 C.ar      1 <0>        -0.1426
     35 C26        -1.1201   -7.4179    0.5159 C.ar      1 <0>        -0.0944
     36 O1          0.1166   -9.1409    3.4720 O.3       1 <0>        -0.4988
     37 H3          1.0048    1.8381    0.0023 H         1 <0>         0.0556
     38 H4         -0.5450    1.8219   -0.8730 H         1 <0>         0.0791
     39 H5         -0.5280    1.8123    0.9069 H         1 <0>         0.0753
     40 H6          0.5496   -1.6879    1.1262 H         1 <0>         0.0967
     41 H7          0.5371   -0.1514    2.0246 H         1 <0>         0.0834
     42 H8         -1.1549    0.2380    3.5700 H         1 <0>         0.1006
     43 H9         -2.9121   -0.0581    3.0947 H         1 <0>         0.0998
     44 H10         0.4049   -0.4471    4.0627 H         1 <0>         0.1204
     45 H11         2.4289   -1.2875    5.1853 H         1 <0>         0.1219
     46 H12         2.7966   -3.7120    5.4080 H         1 <0>         0.1217
     47 H13         1.1398   -5.2962    4.5089 H         1 <0>         0.1202
     48 H14        -0.8883   -4.4558    3.3936 H         1 <0>         0.1198
     49 H15        -1.0052    1.8490   -5.0659 H         1 <0>         0.0925
     50 H16         0.1430    1.8705   -3.7012 H         1 <0>         0.1411
     51 H17         1.0164    3.0579   -5.7472 H         1 <0>         0.1469
     52 H18         2.0401    1.6931   -5.2391 H         1 <0>         0.1337
     53 H19        -0.0307    1.5539   -7.3127 H         1 <0>         0.4287
     54 H20         1.0183   -0.5473   -7.8548 H         1 <0>         0.1472
     55 H21         2.0412   -0.3197   -6.4158 H         1 <0>         0.1336
     56 H22         0.1544   -1.7476   -5.8164 H         1 <0>         0.1417
     57 H23        -0.9976   -0.5532   -6.4702 H         1 <0>         0.0920
     58 H24         0.0226   -4.5359   -3.2091 H         1 <0>         0.4160
     59 H25         0.9321   -4.5258   -0.5353 H         1 <0>         0.0732
     60 H26        -0.8477   -4.5432   -0.5223 H         1 <0>         0.0742
     61 H27        -0.8384   -6.5663   -1.9560 H         1 <0>         0.0812
     62 H28         0.9415   -6.5489   -1.9690 H         1 <0>         0.0809
     63 H29         2.2042   -7.1033    0.0294 H         1 <0>         0.1256
     64 H30         2.2362   -8.3464    2.1536 H         1 <0>         0.1298
     65 H31        -2.0371   -8.4048    2.1752 H         1 <0>         0.1300
     66 H32        -2.0606   -7.1535    0.0556 H         1 <0>         0.1260
     67 H33         0.1129   -8.5773    4.2578 H         1 <0>         0.3926
     68 H34         1.5798    1.7266   -7.6066 H         1 <0>         0.4336
@<TRIPOS>BOND
     1    1    2 1
     2    1   37 1
     3    1   38 1
     4    1   39 1
     5    2    3 1
     6    2   15 1
     7    3    4 1
     8    3   40 1
     9    3   41 1
    10    4    5 1
    11    4    7 1
    12    4    6 1
    13    6    7 1
    14    6   42 1
    15    6   43 1
    16    7    8 1
    17    7    9 1
    18    9   14 ar
    19    9   10 ar
    20   10   11 ar
    21   10   44 1
    22   11   12 ar
    23   11   45 1
    24   12   13 ar
    25   12   46 1
    26   13   14 ar
    27   13   47 1
    28   14   48 1
    29   15   20 ar
    30   15   16 ar
    31   16   17 ar
    32   17   18 ar
    33   17   27 1
    34   18   19 ar
    35   19   20 ar
    36   19   21 1
    37   21   26 1
    38   21   22 1
    39   22   23 1
    40   22   49 1
    41   22   50 1
    42   23   24 1
    43   23   51 1
    44   23   52 1
    45   24   25 1
    46   24   53 1
    47   24   68 1
    48   25   26 1
    49   25   54 1
    50   25   55 1
    51   26   56 1
    52   26   57 1
    53   27   28 1
    54   27   58 1
    55   28   29 1
    56   28   59 1
    57   28   60 1
    58   29   30 1
    59   29   61 1
    60   29   62 1
    61   30   35 ar
    62   30   31 ar
    63   31   32 ar
    64   31   63 1
    65   32   33 ar
    66   32   64 1
    67   33   34 ar
    68   33   36 1
    69   34   35 ar
    70   34   65 1
    71   35   66 1
    72   36   67 1
@<TRIPOS>MOLECULE
CHEMBL153471
   79    83     0     0     0
SMALL
USER_CHARGES

@<TRIPOS>ATOM
      1 C1         -0.0178    1.4608    0.0101 C.3       1 <0>         0.0580
      2 N1          0.0021   -0.0041    0.0020 N.pl3     1 <0>        -0.5549
      3 C2          0.0241   -0.7433    1.2666 C.3       1 <0>         0.1166
      4 C3         -1.4105   -1.0203    1.7205 C.3       1 <0>        -0.1306
      5 C4         -1.3875   -1.7923    3.0413 C.3       1 <0>        -0.0760
      6 C5         -2.8005   -2.0651    3.4884 C.ar      1 <0>        -0.0854
      7 C6         -3.4587   -1.1539    4.2931 C.ar      1 <0>        -0.1035
      8 C7         -4.7547   -1.4036    4.7034 C.ar      1 <0>        -0.1068
      9 C8         -5.3933   -2.5657    4.3087 C.ar      1 <0>        -0.0353
     10 C9         -4.7340   -3.4773    3.5034 C.ar      1 <0>        -0.1081
     11 C10        -3.4400   -3.2238    3.0890 C.ar      1 <0>        -0.1034
     12 Cl1        -7.0209   -2.8802    4.8242 Cl        1 <0>        -0.0621
     13 C11         0.0000   -0.6876   -1.1969 C.ar      1 <0>         0.6837
     14 N2         -0.0145   -0.0167   -2.3446 N.ar      1 <0>        -0.6388
     15 C12        -0.0165   -0.6751   -3.4993 C.ar      1 <0>         0.6937
     16 N3         -0.0039   -2.0045   -3.5066 N.ar      1 <0>        -0.6207
     17 C13         0.0110   -2.6753   -2.3592 C.ar      1 <0>         0.6742
     18 N4          0.0180   -2.0167   -1.2042 N.ar      1 <0>        -0.6152
     19 N5          0.0236   -4.0553   -2.3667 N.pl3     1 <0>        -0.5257
     20 C14         0.0341   -4.8170   -1.1086 C.3       1 <0>         0.1157
     21 C15        -1.0888   -5.8585   -1.1607 C.3       1 <0>         0.0391
     22 N6         -0.9453   -6.6680   -2.3781 N.3       1 <0>        -0.5338
     23 C16        -1.0957   -5.8453   -3.5858 C.3       1 <0>         0.0345
     24 C17         0.0206   -4.8033   -3.6331 C.3       1 <0>         0.1162
     25 C18        -1.8971   -7.7870   -2.3815 C.3       1 <0>         0.1014
     26 C19        -1.5617   -8.7283   -3.5095 C.ar      1 <0>        -0.1407
     27 C20        -2.1224   -8.5478   -4.7649 C.ar      1 <0>        -0.0728
     28 C21        -1.7852   -9.4382   -5.7724 C.ar      1 <0>        -0.1715
     29 C22        -0.9074  -10.4692   -5.4942 C.ar      1 <0>         0.1057
     30 N7         -0.3937  -10.6105   -4.2881 N.ar      1 <0>        -0.4823
     31 C23        -0.6872   -9.7789   -3.3074 C.ar      1 <0>         0.1233
     32 N8         -0.0320    0.0214   -4.6907 N.pl3     1 <0>        -0.6641
     33 C24        -0.0463    1.4863   -4.6827 C.3       1 <0>         0.0944
     34 C25        -0.0619    2.0041   -6.1224 C.3       1 <0>        -0.0846
     35 C26        -0.0766    3.5110   -6.1141 C.ar      1 <0>        -0.1114
     36 C27        -1.2813    4.1893   -6.0959 C.ar      1 <0>        -0.0937
     37 C28        -1.2975    5.5706   -6.0887 C.ar      1 <0>        -0.1429
     38 C29        -0.1036    6.2772   -6.0994 C.ar      1 <0>         0.1189
     39 C30         1.1038    5.5943   -6.1173 C.ar      1 <0>        -0.1427
     40 C31         1.1146    4.2128   -6.1191 C.ar      1 <0>        -0.0933
     41 O1         -0.1169    7.6362   -6.0929 O.3       1 <0>        -0.4970
     42 H1          1.0048    1.8381    0.0023 H         1 <0>         0.0893
     43 H2         -0.5450    1.8219   -0.8730 H         1 <0>         0.0721
     44 H3         -0.5280    1.8123    0.9069 H         1 <0>         0.1126
     45 H4          0.5496   -1.6879    1.1262 H         1 <0>         0.1074
     46 H5          0.5371   -0.1514    2.0246 H         1 <0>         0.1041
     47 H6         -1.9359   -0.0757    1.8610 H         1 <0>         0.0715
     48 H7         -1.9235   -1.6122    0.9626 H         1 <0>         0.0724
     49 H8         -0.8620   -2.7369    2.9008 H         1 <0>         0.0817
     50 H9         -0.8745   -1.2004    3.7993 H         1 <0>         0.0813
     51 H10        -2.9600   -0.2469    4.6014 H         1 <0>         0.1316
     52 H11        -5.2687   -0.6918    5.3324 H         1 <0>         0.1356
     53 H12        -5.2319   -4.3848    3.1952 H         1 <0>         0.1343
     54 H13        -2.9270   -3.9331    2.4564 H         1 <0>         0.1296
     55 H14         0.9944   -5.3194   -0.9927 H         1 <0>         0.0978
     56 H15        -0.1322   -4.1410   -0.2699 H         1 <0>         0.1115
     57 H16        -1.0266   -6.5045   -0.2850 H         1 <0>         0.1041
     58 H17        -2.0541   -5.3524   -1.1721 H         1 <0>         0.0449
     59 H18        -1.0386   -6.4818   -4.4689 H         1 <0>         0.1026
     60 H19        -2.0609   -5.3394   -3.5634 H         1 <0>         0.0439
     61 H20        -0.1545   -4.1183   -4.4626 H         1 <0>         0.1109
     62 H21         0.9797   -5.3044   -3.7646 H         1 <0>         0.0965
     63 H22        -1.8346   -8.3199   -1.4327 H         1 <0>         0.0950
     64 H23        -2.9083   -7.4034   -2.5168 H         1 <0>         0.0503
     65 H24        -2.8059   -7.7330   -4.9531 H         1 <0>         0.1294
     66 H25        -2.2032   -9.3281   -6.7621 H         1 <0>         0.1373
     67 H26        -0.6396  -11.1671   -6.2736 H         1 <0>         0.1584
     68 H27        -0.2425   -9.9235   -2.3339 H         1 <0>         0.1558
     69 H28        -0.0334   -0.4590   -5.5334 H         1 <0>         0.4439
     70 H29        -0.9360    1.8381   -4.1604 H         1 <0>         0.0865
     71 H30         0.8438    1.8556   -4.1734 H         1 <0>         0.0874
     72 H31         0.8278    1.6523   -6.6447 H         1 <0>         0.0934
     73 H32        -0.9520    1.6348   -6.6317 H         1 <0>         0.0930
     74 H33        -2.2104    3.6388   -6.0876 H         1 <0>         0.1284
     75 H34        -2.2387    6.1000   -6.0752 H         1 <0>         0.1339
     76 H35         2.0345    6.1421   -6.1256 H         1 <0>         0.1341
     77 H36         2.0544    3.6807   -6.1285 H         1 <0>         0.1288
     78 H37        -0.1104    8.0253   -5.2077 H         1 <0>         0.3965
     79 H38        -0.0240    0.9532   -2.3393 H         1 <0>         0.4339
@<TRIPOS>BOND
     1    1    2 1
     2    1   42 1
     3    1   43 1
     4    1   44 1
     5    2    3 1
     6    2   13 1
     7    3    4 1
     8    3   45 1
     9    3   46 1
    10    4    5 1
    11    4   47 1
    12    4   48 1
    13    5    6 1
    14    5   49 1
    15    5   50 1
    16    6   11 ar
    17    6    7 ar
    18    7    8 ar
    19    7   51 1
    20    8    9 ar
    21    8   52 1
    22    9   10 ar
    23    9   12 1
    24   10   11 ar
    25   10   53 1
    26   11   54 1
    27   13   18 ar
    28   13   14 ar
    29   14   15 ar
    30   14   79 1
    31   15   16 ar
    32   15   32 1
    33   16   17 ar
    34   17   18 ar
    35   17   19 1
    36   19   24 1
    37   19   20 1
    38   20   21 1
    39   20   55 1
    40   20   56 1
    41   21   22 1
    42   21   57 1
    43   21   58 1
    44   22   23 1
    45   22   25 1
    46   23   24 1
    47   23   59 1
    48   23   60 1
    49   24   61 1
    50   24   62 1
    51   25   26 1
    52   25   63 1
    53   25   64 1
    54   26   31 ar
    55   26   27 ar
    56   27   28 ar
    57   27   65 1
    58   28   29 ar
    59   28   66 1
    60   29   30 ar
    61   29   67 1
    62   30   31 ar
    63   31   68 1
    64   32   33 1
    65   32   69 1
    66   33   34 1
    67   33   70 1
    68   33   71 1
    69   34   35 1
    70   34   72 1
    71   34   73 1
    72   35   40 ar
    73   35   36 ar
    74   36   37 ar
    75   36   74 1
    76   37   38 ar
    77   37   75 1
    78   38   39 ar
    79   38   41 1
    80   39   40 ar
    81   39   76 1
    82   40   77 1
    83   41   78 1
@<TRIPOS>MOLECULE
CHEMBL153471__1
   79    83     0     0     0
SMALL
USER_CHARGES

@<TRIPOS>ATOM
      1 C1         -0.0178    1.4608    0.0101 C.3       1 <0>         0.0991
      2 N1          0.0021   -0.0041    0.0020 N.pl3     1 <0>        -0.5707
      3 C2          0.0241   -0.7433    1.2666 C.3       1 <0>         0.1282
      4 C3         -1.4105   -1.0203    1.7205 C.3       1 <0>        -0.1255
      5 C4         -1.3875   -1.7923    3.0413 C.3       1 <0>        -0.0771
      6 C5         -2.8005   -2.0651    3.4884 C.ar      1 <0>        -0.0785
      7 C6         -3.4587   -1.1539    4.2931 C.ar      1 <0>        -0.1048
      8 C7         -4.7547   -1.4036    4.7034 C.ar      1 <0>        -0.1076
      9 C8         -5.3933   -2.5657    4.3087 C.ar      1 <0>        -0.0381
     10 C9         -4.7340   -3.4773    3.5034 C.ar      1 <0>        -0.1080
     11 C10        -3.4400   -3.2238    3.0890 C.ar      1 <0>        -0.1032
     12 Cl1        -7.0209   -2.8802    4.8242 Cl        1 <0>        -0.0669
     13 C11         0.0000   -0.6876   -1.1969 C.ar      1 <0>         0.6578
     14 N2          0.0126   -2.0171   -1.2042 N.ar      1 <0>        -0.6591
     15 C12         0.0106   -2.6754   -2.3589 C.ar      1 <0>         0.6588
     16 N3         -0.0039   -2.0045   -3.5066 N.ar      1 <0>        -0.6817
     17 C13        -0.0169   -0.6754   -3.4993 C.ar      1 <0>         0.6559
     18 N4         -0.0200   -0.0169   -2.3443 N.ar      1 <0>        -0.6768
     19 N5         -0.0315    0.0211   -4.6907 N.pl3     1 <0>        -0.5970
     20 C14        -0.0398    1.4921   -4.7069 C.3       1 <0>         0.1087
     21 C15         1.0694    1.9737   -5.6479 C.3       1 <0>        -0.0207
     22 N6          0.8954    1.3521   -6.9667 N.4       1 <0>        -0.3840
     23 C16         1.0705   -0.1019   -6.8613 C.3       1 <0>        -0.0252
     24 C17        -0.0330   -0.6864   -5.9805 C.3       1 <0>         0.1105
     25 C18         1.8918    1.8973   -7.8984 C.3       1 <0>         0.0503
     26 C19         1.6377    1.3533   -9.2806 C.ar      1 <0>        -0.2195
     27 C20         2.2368    0.1721   -9.6914 C.ar      1 <0>        -0.0504
     28 C21         1.9742   -0.2904  -10.9716 C.ar      1 <0>        -0.1653
     29 C22         1.1298    0.4360  -11.7902 C.ar      1 <0>         0.1390
     30 N7          0.5778    1.5558  -11.3660 N.ar      1 <0>        -0.4746
     31 C23         0.8002    2.0223  -10.1526 C.ar      1 <0>         0.1332
     32 N8          0.0241   -4.0554   -2.3664 N.pl3     1 <0>        -0.6831
     33 C24         0.0405   -4.7947   -1.1018 C.3       1 <0>         0.1420
     34 C25         0.0532   -6.2974   -1.3895 C.3       1 <0>        -0.0914
     35 C26         0.0701   -7.0579   -0.0886 C.ar      1 <0>        -0.0959
     36 C27         1.2759   -7.3895    0.5013 C.ar      1 <0>        -0.0950
     37 C28         1.2941   -8.0869    1.6936 C.ar      1 <0>        -0.1430
     38 C29         0.1013   -8.4543    2.2993 C.ar      1 <0>         0.1100
     39 C30        -1.1072   -8.1200    1.7056 C.ar      1 <0>        -0.1423
     40 C31        -1.1201   -7.4179    0.5159 C.ar      1 <0>        -0.0948
     41 O1          0.1166   -9.1409    3.4720 O.3       1 <0>        -0.4991
     42 H1          1.0048    1.8381    0.0023 H         1 <0>         0.0561
     43 H2         -0.5450    1.8219   -0.8730 H         1 <0>         0.0791
     44 H3         -0.5280    1.8123    0.9069 H         1 <0>         0.0744
     45 H4          0.5496   -1.6879    1.1262 H         1 <0>         0.0923
     46 H5          0.5371   -0.1514    2.0246 H         1 <0>         0.0825
     47 H6         -1.9359   -0.0757    1.8610 H         1 <0>         0.0645
     48 H7         -1.9235   -1.6122    0.9626 H         1 <0>         0.0684
     49 H8         -0.8620   -2.7369    2.9008 H         1 <0>         0.0781
     50 H9         -0.8745   -1.2004    3.7993 H         1 <0>         0.0771
     51 H10        -2.9600   -0.2469    4.6014 H         1 <0>         0.1311
     52 H11        -5.2687   -0.6918    5.3324 H         1 <0>         0.1341
     53 H12        -5.2319   -4.3848    3.1952 H         1 <0>         0.1330
     54 H13        -2.9270   -3.9331    2.4564 H         1 <0>         0.1296
     55 H14        -1.0052    1.8490   -5.0659 H         1 <0>         0.0923
     56 H15         0.1430    1.8705   -3.7012 H         1 <0>         0.1424
     57 H16         1.0164    3.0579   -5.7472 H         1 <0>         0.1461
     58 H17         2.0401    1.6931   -5.2391 H         1 <0>         0.1336
     59 H18         1.0183   -0.5473   -7.8548 H         1 <0>         0.1394
     60 H19         2.0412   -0.3197   -6.4158 H         1 <0>         0.1333
     61 H20         0.1544   -1.7476   -5.8164 H         1 <0>         0.1418
     62 H21        -0.9976   -0.5532   -6.4702 H         1 <0>         0.0904
     63 H22         1.8160    2.9845   -7.9161 H         1 <0>         0.1430
     64 H23         2.8908    1.6080   -7.5721 H         1 <0>         0.1375
     65 H24         2.8927   -0.3743   -9.0299 H         1 <0>         0.1442
     66 H25         2.4239   -1.2065  -11.3250 H         1 <0>         0.1513
     67 H26         0.9201    0.0824  -12.7889 H         1 <0>         0.1710
     68 H27         0.3259    2.9404   -9.8386 H         1 <0>         0.1630
     69 H28         0.0226   -4.5359   -3.2091 H         1 <0>         0.4162
     70 H29         0.9321   -4.5258   -0.5353 H         1 <0>         0.0733
     71 H30        -0.8477   -4.5432   -0.5223 H         1 <0>         0.0736
     72 H31        -0.8384   -6.5663   -1.9560 H         1 <0>         0.0814
     73 H32         0.9415   -6.5489   -1.9690 H         1 <0>         0.0811
     74 H33         2.2042   -7.1033    0.0294 H         1 <0>         0.1262
     75 H34         2.2362   -8.3464    2.1536 H         1 <0>         0.1304
     76 H35        -2.0371   -8.4048    2.1752 H         1 <0>         0.1305
     77 H36        -2.0606   -7.1535    0.0556 H         1 <0>         0.1265
     78 H37         0.1129   -8.5773    4.2578 H         1 <0>         0.3937
     79 H38        -0.0307    1.5539   -7.3127 H         1 <0>         0.4231
@<TRIPOS>BOND
     1    1    2 1
     2    1   42 1
     3    1   43 1
     4    1   44 1
     5    2    3 1
     6    2   13 1
     7    3    4 1
     8    3   45 1
     9    3   46 1
    10    4    5 1
    11    4   47 1
    12    4   48 1
    13    5    6 1
    14    5   49 1
    15    5   50 1
    16    6   11 ar
    17    6    7 ar
    18    7    8 ar
    19    7   51 1
    20    8    9 ar
    21    8   52 1
    22    9   10 ar
    23    9   12 1
    24   10   11 ar
    25   10   53 1
    26   11   54 1
    27   13   18 ar
    28   13   14 ar
    29   14   15 ar
    30   15   16 ar
    31   15   32 1
    32   16   17 ar
    33   17   18 ar
    34   17   19 1
    35   19   24 1
    36   19   20 1
    37   20   21 1
    38   20   55 1
    39   20   56 1
    40   21   22 1
    41   21   57 1
    42   21   58 1
    43   22   23 1
    44   22   25 1
    45   22   79 1
    46   23   24 1
    47   23   59 1
    48   23   60 1
    49   24   61 1
    50   24   62 1
    51   25   26 1
    52   25   63 1
    53   25   64 1
    54   26   31 ar
    55   26   27 ar
    56   27   28 ar
    57   27   65 1
    58   28   29 ar
    59   28   66 1
    60   29   30 ar
    61   29   67 1
    62   30   31 ar
    63   31   68 1
    64   32   33 1
    65   32   69 1
    66   33   34 1
    67   33   70 1
    68   33   71 1
    69   34   35 1
    70   34   72 1
    71   34   73 1
    72   35   40 ar
    73   35   36 ar
    74   36   37 ar
    75   36   74 1
    76   37   38 ar
    77   37   75 1
    78   38   39 ar
    79   38   41 1
    80   39   40 ar
    81   39   76 1
    82   40   77 1
    83   41   78 1
@<TRIPOS>MOLECULE
CHEMBL153471__2
   78    82     0     0     0
SMALL
USER_CHARGES

@<TRIPOS>ATOM
      1 C1         -0.0178    1.4608    0.0101 C.3       1 <0>         0.1025
      2 N1          0.0021   -0.0041    0.0020 N.pl3     1 <0>        -0.5785
      3 C2          0.0241   -0.7433    1.2666 C.3       1 <0>         0.1333
      4 C3         -1.4105   -1.0203    1.7205 C.3       1 <0>        -0.1262
      5 C4         -1.3875   -1.7923    3.0413 C.3       1 <0>        -0.0774
      6 C5         -2.8005   -2.0651    3.4884 C.ar      1 <0>        -0.0744
      7 C6         -3.4587   -1.1539    4.2931 C.ar      1 <0>        -0.1052
      8 C7         -4.7547   -1.4036    4.7034 C.ar      1 <0>        -0.1083
      9 C8         -5.3933   -2.5657    4.3087 C.ar      1 <0>        -0.0396
     10 C9         -4.7340   -3.4773    3.5034 C.ar      1 <0>        -0.1080
     11 C10        -3.4400   -3.2238    3.0890 C.ar      1 <0>        -0.1026
     12 Cl1        -7.0209   -2.8802    4.8242 Cl        1 <0>        -0.0712
     13 C11         0.0000   -0.6876   -1.1969 C.ar      1 <0>         0.6530
     14 N2          0.0126   -2.0171   -1.2042 N.ar      1 <0>        -0.6721
     15 C12         0.0106   -2.6754   -2.3589 C.ar      1 <0>         0.6539
     16 N3         -0.0039   -2.0045   -3.5066 N.ar      1 <0>        -0.6823
     17 C13        -0.0169   -0.6754   -3.4993 C.ar      1 <0>         0.6571
     18 N4         -0.0200   -0.0169   -2.3443 N.ar      1 <0>        -0.6776
     19 N5         -0.0315    0.0211   -4.6907 N.pl3     1 <0>        -0.5757
     20 C14        -0.0399    1.4918   -4.7054 C.3       1 <0>         0.1341
     21 C15         1.0813    1.9758   -5.6311 C.3       1 <0>         0.0417
     22 N6          0.9335    1.3407   -6.9474 N.3       1 <0>        -0.5327
     23 C16         1.0820   -0.1179   -6.8550 C.3       1 <0>         0.0377
     24 C17        -0.0330   -0.6876   -5.9795 C.3       1 <0>         0.1347
     25 C18         1.8836    1.9064   -7.9145 C.3       1 <0>         0.0987
     26 C19         1.5439    1.4156   -9.2983 C.ar      1 <0>        -0.1318
     27 C20         2.1016    0.2425   -9.7838 C.ar      1 <0>        -0.0716
     28 C21         1.7605   -0.1704  -11.0624 C.ar      1 <0>        -0.1724
     29 C22         0.8819    0.5954  -11.8056 C.ar      1 <0>         0.0994
     30 N7          0.3711    1.7061  -11.3116 N.ar      1 <0>        -0.4848
     31 C23         0.6683    2.1260  -10.0972 C.ar      1 <0>         0.1208
     32 N8          0.0241   -4.0554   -2.3664 N.pl3     1 <0>        -0.6911
     33 C24         0.0405   -4.7947   -1.1018 C.3       1 <0>         0.1470
     34 C25         0.0532   -6.2974   -1.3895 C.3       1 <0>        -0.0935
     35 C26         0.0701   -7.0579   -0.0886 C.ar      1 <0>        -0.0896
     36 C27         1.2759   -7.3895    0.5013 C.ar      1 <0>        -0.0954
     37 C28         1.2941   -8.0869    1.6936 C.ar      1 <0>        -0.1430
     38 C29         0.1013   -8.4543    2.2993 C.ar      1 <0>         0.1050
     39 C30        -1.1072   -8.1200    1.7056 C.ar      1 <0>        -0.1425
     40 C31        -1.1201   -7.4179    0.5159 C.ar      1 <0>        -0.0953
     41 O1          0.1166   -9.1409    3.4720 O.3       1 <0>        -0.5003
     42 H1          1.0048    1.8381    0.0023 H         1 <0>         0.0524
     43 H2         -0.5450    1.8219   -0.8730 H         1 <0>         0.0807
     44 H3         -0.5280    1.8123    0.9069 H         1 <0>         0.0685
     45 H4          0.5496   -1.6879    1.1262 H         1 <0>         0.0896
     46 H5          0.5371   -0.1514    2.0246 H         1 <0>         0.0769
     47 H6         -1.9359   -0.0757    1.8610 H         1 <0>         0.0630
     48 H7         -1.9235   -1.6122    0.9626 H         1 <0>         0.0692
     49 H8         -0.8620   -2.7369    2.9008 H         1 <0>         0.0778
     50 H9         -0.8745   -1.2004    3.7993 H         1 <0>         0.0757
     51 H10        -2.9600   -0.2469    4.6014 H         1 <0>         0.1311
     52 H11        -5.2687   -0.6918    5.3324 H         1 <0>         0.1328
     53 H12        -5.2319   -4.3848    3.1952 H         1 <0>         0.1323
     54 H13        -2.9270   -3.9331    2.4564 H         1 <0>         0.1307
     55 H14        -1.0007    1.8488   -5.0762 H         1 <0>         0.0743
     56 H15         0.1296    1.8690   -3.6968 H         1 <0>         0.1034
     57 H16         1.0204    3.0586   -5.7408 H         1 <0>         0.0915
     58 H17         2.0473    1.7068   -5.2039 H         1 <0>         0.0396
     59 H18         1.0217   -0.5535   -7.8524 H         1 <0>         0.0896
     60 H19         2.0480   -0.3577   -6.4107 H         1 <0>         0.0383
     61 H20         0.1411   -1.7507   -5.8130 H         1 <0>         0.1026
     62 H21        -0.9931   -0.5442   -6.4752 H         1 <0>         0.0724
     63 H22         1.8228    2.9944   -7.8898 H         1 <0>         0.0904
     64 H23         2.8951    1.5930   -7.6560 H         1 <0>         0.0463
     65 H24         2.7858   -0.3355   -9.1803 H         1 <0>         0.1301
     66 H25         2.1761   -1.0789  -11.4728 H         1 <0>         0.1353
     67 H26         0.6111    0.2806  -12.8026 H         1 <0>         0.1556
     68 H27         0.2260    3.0380   -9.7246 H         1 <0>         0.1555
     69 H28         0.0226   -4.5359   -3.2091 H         1 <0>         0.4142
     70 H29         0.9321   -4.5258   -0.5353 H         1 <0>         0.0691
     71 H30        -0.8477   -4.5432   -0.5223 H         1 <0>         0.0695
     72 H31        -0.8384   -6.5663   -1.9560 H         1 <0>         0.0812
     73 H32         0.9415   -6.5489   -1.9690 H         1 <0>         0.0809
     74 H33         2.2042   -7.1033    0.0294 H         1 <0>         0.1269
     75 H34         2.2362   -8.3464    2.1536 H         1 <0>         0.1290
     76 H35        -2.0371   -8.4048    2.1752 H         1 <0>         0.1291
     77 H36        -2.0606   -7.1535    0.0556 H         1 <0>         0.1270
     78 H37         0.1129   -8.5773    4.2578 H         1 <0>         0.3918
@<TRIPOS>BOND
     1    1    2 1
     2    1   42 1
     3    1   43 1
     4    1   44 1
     5    2    3 1
     6    2   13 1
     7    3    4 1
     8    3   45 1
     9    3   46 1
    10    4    5 1
    11    4   47 1
    12    4   48 1
    13    5    6 1
    14    5   49 1
    15    5   50 1
    16    6   11 ar
    17    6    7 ar
    18    7    8 ar
    19    7   51 1
    20    8    9 ar
    21    8   52 1
    22    9   10 ar
    23    9   12 1
    24   10   11 ar
    25   10   53 1
    26   11   54 1
    27   13   18 ar
    28   13   14 ar
    29   14   15 ar
    30   15   16 ar
    31   15   32 1
    32   16   17 ar
    33   17   18 ar
    34   17   19 1
    35   19   24 1
    36   19   20 1
    37   20   21 1
    38   20   55 1
    39   20   56 1
    40   21   22 1
    41   21   57 1
    42   21   58 1
    43   22   23 1
    44   22   25 1
    45   23   24 1
    46   23   59 1
    47   23   60 1
    48   24   61 1
    49   24   62 1
    50   25   26 1
    51   25   63 1
    52   25   64 1
    53   26   31 ar
    54   26   27 ar
    55   27   28 ar
    56   27   65 1
    57   28   29 ar
    58   28   66 1
    59   29   30 ar
    60   29   67 1
    61   30   31 ar
    62   31   68 1
    63   32   33 1
    64   32   69 1
    65   33   34 1
    66   33   70 1
    67   33   71 1
    68   34   35 1
    69   34   72 1
    70   34   73 1
    71   35   40 ar
    72   35   36 ar
    73   36   37 ar
    74   36   74 1
    75   37   38 ar
    76   37   75 1
    77   38   39 ar
    78   38   41 1
    79   39   40 ar
    80   39   76 1
    81   40   77 1
    82   41   78 1
@<TRIPOS>MOLECULE
CHEMBL153471__3
   80    84     0     0     0
SMALL
USER_CHARGES

@<TRIPOS>ATOM
      1 C1         -0.0178    1.4608    0.0101 C.3       1 <0>         0.0503
      2 N1          0.0021   -0.0041    0.0020 N.pl3     1 <0>        -0.5405
      3 C2          0.0241   -0.7433    1.2666 C.3       1 <0>         0.1115
      4 C3         -1.4105   -1.0203    1.7205 C.3       1 <0>        -0.1304
      5 C4         -1.3875   -1.7923    3.0413 C.3       1 <0>        -0.0748
      6 C5         -2.8005   -2.0651    3.4884 C.ar      1 <0>        -0.0895
      7 C6         -3.4587   -1.1539    4.2931 C.ar      1 <0>        -0.1011
      8 C7         -4.7547   -1.4036    4.7034 C.ar      1 <0>        -0.1033
      9 C8         -5.3933   -2.5657    4.3087 C.ar      1 <0>        -0.0337
     10 C9         -4.7340   -3.4773    3.5034 C.ar      1 <0>        -0.1098
     11 C10        -3.4400   -3.2238    3.0890 C.ar      1 <0>        -0.1070
     12 Cl1        -7.0209   -2.8802    4.8242 Cl        1 <0>        -0.0555
     13 C11         0.0000   -0.6876   -1.1969 C.ar      1 <0>         0.6882
     14 N2         -0.0145   -0.0167   -2.3446 N.ar      1 <0>        -0.6345
     15 C12        -0.0165   -0.6751   -3.4993 C.ar      1 <0>         0.7000
     16 N3         -0.0039   -2.0045   -3.5066 N.ar      1 <0>        -0.6258
     17 C13         0.0110   -2.6753   -2.3592 C.ar      1 <0>         0.6920
     18 N4          0.0180   -2.0167   -1.2042 N.ar      1 <0>        -0.6195
     19 N5          0.0236   -4.0553   -2.3667 N.pl3     1 <0>        -0.5659
     20 C14         0.0340   -4.8185   -1.1091 C.3       1 <0>         0.0942
     21 C15        -1.0770   -5.8719   -1.1711 C.3       1 <0>        -0.0226
     22 N6         -0.9073   -6.6905   -2.3782 N.4       1 <0>        -0.3872
     23 C16        -1.0843   -5.8589   -3.5753 C.3       1 <0>        -0.0272
     24 C17         0.0207   -4.8048   -3.6325 C.3       1 <0>         0.0963
     25 C18        -1.9053   -7.7684   -2.3810 C.3       1 <0>         0.0512
     26 C19        -1.6555   -8.6812   -3.5538 C.ar      1 <0>        -0.2274
     27 C20        -2.2575   -8.4322   -4.7780 C.ar      1 <0>        -0.0519
     28 C21        -1.9988   -9.2987   -5.8288 C.ar      1 <0>        -0.1643
     29 C22        -1.1555  -10.3743   -5.6229 C.ar      1 <0>         0.1451
     30 N7         -0.6008  -10.5805   -4.4446 N.ar      1 <0>        -0.4720
     31 C23        -0.8193   -9.7737   -3.4245 C.ar      1 <0>         0.1360
     32 N8         -0.0320    0.0214   -4.6907 N.pl3     1 <0>        -0.6501
     33 C24        -0.0463    1.4863   -4.6827 C.3       1 <0>         0.0877
     34 C25        -0.0619    2.0041   -6.1224 C.3       1 <0>        -0.0828
     35 C26        -0.0766    3.5110   -6.1141 C.ar      1 <0>        -0.1181
     36 C27        -1.2813    4.1893   -6.0959 C.ar      1 <0>        -0.0932
     37 C28        -1.2975    5.5706   -6.0887 C.ar      1 <0>        -0.1428
     38 C29        -0.1036    6.2772   -6.0994 C.ar      1 <0>         0.1242
     39 C30         1.1038    5.5943   -6.1173 C.ar      1 <0>        -0.1424
     40 C31         1.1146    4.2128   -6.1191 C.ar      1 <0>        -0.0928
     41 O1         -0.1169    7.6362   -6.0929 O.3       1 <0>        -0.4957
     42 H1          1.0048    1.8381    0.0023 H         1 <0>         0.0969
     43 H2         -0.5450    1.8219   -0.8730 H         1 <0>         0.0762
     44 H3         -0.5280    1.8123    0.9069 H         1 <0>         0.1194
     45 H4          0.5496   -1.6879    1.1262 H         1 <0>         0.1075
     46 H5          0.5371   -0.1514    2.0246 H         1 <0>         0.1103
     47 H6         -1.9359   -0.0757    1.8610 H         1 <0>         0.0754
     48 H7         -1.9235   -1.6122    0.9626 H         1 <0>         0.0704
     49 H8         -0.8620   -2.7369    2.9008 H         1 <0>         0.0792
     50 H9         -0.8745   -1.2004    3.7993 H         1 <0>         0.0838
     51 H10        -2.9600   -0.2469    4.6014 H         1 <0>         0.1332
     52 H11        -5.2687   -0.6918    5.3324 H         1 <0>         0.1384
     53 H12        -5.2319   -4.3848    3.1952 H         1 <0>         0.1336
     54 H13        -2.9270   -3.9331    2.4564 H         1 <0>         0.1243
     55 H14         0.9990   -5.3106   -0.9873 H         1 <0>         0.1127
     56 H15        -0.1457   -4.1455   -0.2707 H         1 <0>         0.1485
     57 H16        -1.0226   -6.5098   -0.2888 H         1 <0>         0.1570
     58 H17        -2.0470   -5.3758   -1.2018 H         1 <0>         0.1383
     59 H18        -1.0353   -6.4871   -4.4648 H         1 <0>         0.1507
     60 H19        -2.0541   -5.3631   -3.5333 H         1 <0>         0.1382
     61 H20        -0.1678   -4.1228   -4.4616 H         1 <0>         0.1479
     62 H21         0.9842   -5.2955   -3.7698 H         1 <0>         0.1109
     63 H22        -1.8280   -8.3376   -1.4547 H         1 <0>         0.1472
     64 H23        -2.9038   -7.3388   -2.4612 H         1 <0>         0.1399
     65 H24        -2.9125   -7.5837   -4.9096 H         1 <0>         0.1434
     66 H25        -2.4508   -9.1355   -6.7960 H         1 <0>         0.1531
     67 H26        -0.9489  -11.0540   -6.4364 H         1 <0>         0.1737
     68 H27        -0.3428   -9.9717   -2.4757 H         1 <0>         0.1636
     69 H28        -0.0334   -0.4590   -5.5334 H         1 <0>         0.4464
     70 H29        -0.9360    1.8381   -4.1604 H         1 <0>         0.0919
     71 H30         0.8438    1.8556   -4.1734 H         1 <0>         0.0928
     72 H31         0.8278    1.6523   -6.6447 H         1 <0>         0.0941
     73 H32        -0.9520    1.6348   -6.6317 H         1 <0>         0.0935
     74 H33        -2.2104    3.6388   -6.0876 H         1 <0>         0.1278
     75 H34        -2.2387    6.1000   -6.0752 H         1 <0>         0.1354
     76 H35         2.0345    6.1421   -6.1256 H         1 <0>         0.1357
     77 H36         2.0544    3.6807   -6.1285 H         1 <0>         0.1284
     78 H37        -0.1104    8.0253   -5.2077 H         1 <0>         0.3984
     79 H38        -0.0240    0.9532   -2.3393 H         1 <0>         0.4405
     80 H39         0.0182   -7.0924   -2.3832 H         1 <0>         0.4266
@<TRIPOS>BOND
     1    1    2 1
     2    1   42 1
     3    1   43 1
     4    1   44 1
     5    2    3 1
     6    2   13 1
     7    3    4 1
     8    3   45 1
     9    3   46 1
    10    4    5 1
    11    4   47 1
    12    4   48 1
    13    5    6 1
    14    5   49 1
    15    5   50 1
    16    6   11 ar
    17    6    7 ar
    18    7    8 ar
    19    7   51 1
    20    8    9 ar
    21    8   52 1
    22    9   10 ar
    23    9   12 1
    24   10   11 ar
    25   10   53 1
    26   11   54 1
    27   13   18 ar
    28   13   14 ar
    29   14   15 ar
    30   14   79 1
    31   15   16 ar
    32   15   32 1
    33   16   17 ar
    34   17   18 ar
    35   17   19 1
    36   19   24 1
    37   19   20 1
    38   20   21 1
    39   20   55 1
    40   20   56 1
    41   21   22 1
    42   21   57 1
    43   21   58 1
    44   22   23 1
    45   22   25 1
    46   22   80 1
    47   23   24 1
    48   23   59 1
    49   23   60 1
    50   24   61 1
    51   24   62 1
    52   25   26 1
    53   25   63 1
    54   25   64 1
    55   26   31 ar
    56   26   27 ar
    57   27   28 ar
    58   27   65 1
    59   28   29 ar
    60   28   66 1
    61   29   30 ar
    62   29   67 1
    63   30   31 ar
    64   31   68 1
    65   32   33 1
    66   32   69 1
    67   33   34 1
    68   33   70 1
    69   33   71 1
    70   34   35 1
    71   34   72 1
    72   34   73 1
    73   35   40 ar
    74   35   36 ar
    75   36   37 ar
    76   36   74 1
    77   37   38 ar
    78   37   75 1
    79   38   39 ar
    80   38   41 1
    81   39   40 ar
    82   39   76 1
    83   40   77 1
    84   41   78 1
@<TRIPOS>MOLECULE
CHEMBL267385
   66    71     0     0     0
SMALL
USER_CHARGES

@<TRIPOS>ATOM
      1 C1         -0.0991    1.7368    0.3625 C.ar      1 <0>        -0.0841
      2 C2          1.1106    2.3956    0.3259 C.ar      1 <0>        -0.1413
      3 C3          2.2935    1.6750    0.2209 C.ar      1 <0>         0.1128
      4 C4          2.2632    0.2880    0.1523 C.ar      1 <0>        -0.1438
      5 C5          1.0584   -0.3797    0.1881 C.ar      1 <0>        -0.0909
      6 C6         -0.1346    0.3411    0.2938 C.ar      1 <0>        -0.0434
      7 C7         -1.4256   -0.3681    0.3325 C.2       1 <0>        -0.0769
      8 C8         -2.3943   -0.3045   -0.5952 C.2       1 <0>        -0.0886
      9 C9         -3.5377   -1.1495   -0.2147 C.ar      1 <0>        -0.0554
     10 C10        -4.7578   -1.4046   -0.8479 C.ar      1 <0>        -0.1203
     11 C11        -5.6751   -2.2580   -0.2612 C.ar      1 <0>         0.1131
     12 C12        -5.3880   -2.8621    0.9559 C.ar      1 <0>        -0.1390
     13 C13        -4.1825   -2.6132    1.5874 C.ar      1 <0>        -0.0746
     14 C14        -3.2621   -1.7671    1.0122 C.ar      1 <0>        -0.0961
     15 C15        -1.8947   -1.2982    1.4127 C.3       1 <0>         0.0199
     16 C16        -1.9115   -0.6122    2.7842 C.3       1 <0>        -0.0599
     17 C17        -1.5367   -1.7003    3.7709 C.ar      1 <0>        -0.1096
     18 C18        -1.6794   -1.7492    5.1477 C.ar      1 <0>        -0.0640
     19 C19        -1.2618   -2.8605    5.8516 C.ar      1 <0>        -0.2003
     20 C20        -0.6965   -3.9336    5.1777 C.ar      1 <0>         0.1137
     21 C21        -0.5531   -3.8842    3.7999 C.ar      1 <0>        -0.1288
     22 C22        -0.9722   -2.7685    3.0969 C.ar      1 <0>        -0.0490
     23 C23        -0.9264   -2.4709    1.6113 C.3       1 <0>        -0.0697
     24 O1         -0.2841   -5.0300    5.8667 O.3       1 <0>        -0.3281
     25 C24        -0.4629   -5.0105    7.2844 C.3       1 <0>         0.0266
     26 C25         0.0565   -6.3197    7.8820 C.3       1 <0>        -0.0009
     27 N1          1.5027   -6.4255    7.6470 N.4       1 <0>        -0.3840
     28 C26         1.9719   -7.7470    8.0802 C.3       1 <0>        -0.0072
     29 C27         3.4618   -7.8927    7.7633 C.3       1 <0>        -0.1467
     30 C28         4.2443   -6.8037    8.5029 C.3       1 <0>        -0.1390
     31 C29         3.6964   -5.4318    8.0992 C.3       1 <0>        -0.1453
     32 C30         2.1978   -5.3773    8.4037 C.3       1 <0>        -0.0131
     33 O2         -6.8608   -2.5054   -0.8775 O.3       1 <0>        -0.4966
     34 O3          3.4837    2.3289    0.1848 O.3       1 <0>        -0.4978
     35 H1         -1.0180    2.2976    0.4487 H         1 <0>         0.1313
     36 H2          1.1391    3.4739    0.3787 H         1 <0>         0.1338
     37 H3          3.1855   -0.2680    0.0703 H         1 <0>         0.1316
     38 H4          1.0358   -1.4581    0.1343 H         1 <0>         0.1298
     39 H5         -2.3416    0.2864   -1.4977 H         1 <0>         0.1393
     40 H6         -4.9841   -0.9356   -1.7941 H         1 <0>         0.1327
     41 H7         -6.1074   -3.5273    1.4104 H         1 <0>         0.1333
     42 H8         -3.9631   -3.0841    2.5343 H         1 <0>         0.1231
     43 H9         -1.1789    0.1944    2.8134 H         1 <0>         0.0923
     44 H10        -2.9078   -0.2285    3.0037 H         1 <0>         0.0854
     45 H11        -2.1190   -0.9140    5.6727 H         1 <0>         0.1298
     46 H12        -1.3745   -2.8946    6.9251 H         1 <0>         0.1287
     47 H13        -0.1129   -4.7183    3.2739 H         1 <0>         0.1310
     48 H14        -1.2592   -3.3380    1.0407 H         1 <0>         0.0877
     49 H15         0.0821   -2.1844    1.3131 H         1 <0>         0.0998
     50 H16         0.0902   -4.1727    7.7088 H         1 <0>         0.0860
     51 H17        -1.5225   -4.9008    7.5155 H         1 <0>         0.1092
     52 H18        -0.1393   -6.3325    8.9542 H         1 <0>         0.1488
     53 H19        -0.4509   -7.1611    7.4099 H         1 <0>         0.1425
     54 H20         1.8173   -7.8529    9.1540 H         1 <0>         0.1292
     55 H21         1.4119   -8.5210    7.5554 H         1 <0>         0.1310
     56 H22         3.8087   -8.8739    8.0873 H         1 <0>         0.1131
     57 H23         3.6175   -7.7872    6.6896 H         1 <0>         0.0879
     58 H24         4.1303   -6.9396    9.5784 H         1 <0>         0.0821
     59 H25         5.2992   -6.8678    8.2360 H         1 <0>         0.0947
     60 H26         4.2110   -4.6540    8.6634 H         1 <0>         0.1122
     61 H27         3.8570   -5.2752    7.0325 H         1 <0>         0.0878
     62 H28         1.8046   -4.4018    8.1177 H         1 <0>         0.1273
     63 H29         2.0384   -5.5338    9.4706 H         1 <0>         0.1302
     64 H30        -6.8403   -3.2605   -1.4813 H         1 <0>         0.3943
     65 H31         3.8795    2.4738    1.0551 H         1 <0>         0.3930
     66 H32         1.6918   -6.3097    6.6626 H         1 <0>         0.4294
@<TRIPOS>BOND
     1    1    6 ar
     2    1    2 ar
     3    1   35 1
     4    2    3 ar
     5    2   36 1
     6    3    4 ar
     7    3   34 1
     8    4    5 ar
     9    4   37 1
    10    5    6 ar
    11    5   38 1
    12    6    7 1
    13    7   15 1
    14    7    8 2
    15    8    9 1
    16    8   39 1
    17    9   14 ar
    18    9   10 ar
    19   10   11 ar
    20   10   40 1
    21   11   12 ar
    22   11   33 1
    23   12   13 ar
    24   12   41 1
    25   13   14 ar
    26   13   42 1
    27   14   15 1
    28   15   23 1
    29   15   16 1
    30   16   17 1
    31   16   43 1
    32   16   44 1
    33   17   22 ar
    34   17   18 ar
    35   18   19 ar
    36   18   45 1
    37   19   20 ar
    38   19   46 1
    39   20   21 ar
    40   20   24 1
    41   21   22 ar
    42   21   47 1
    43   22   23 1
    44   23   48 1
    45   23   49 1
    46   24   25 1
    47   25   26 1
    48   25   50 1
    49   25   51 1
    50   26   27 1
    51   26   52 1
    52   26   53 1
    53   27   32 1
    54   27   28 1
    55   27   66 1
    56   28   29 1
    57   28   54 1
    58   28   55 1
    59   29   30 1
    60   29   56 1
    61   29   57 1
    62   30   31 1
    63   30   58 1
    64   30   59 1
    65   31   32 1
    66   31   60 1
    67   31   61 1
    68   32   62 1
    69   32   63 1
    70   33   64 1
    71   34   65 1
@<TRIPOS>MOLECULE
CHEMBL267385__1
   66    71     0     0     0
SMALL
USER_CHARGES

@<TRIPOS>ATOM
      1 C1          0.2884    0.9077   -0.2070 C.ar      1 <0>        -0.0857
      2 C2          1.4736    1.6106   -0.2117 C.ar      1 <0>        -0.1429
      3 C3          2.6847    0.9348   -0.1342 C.ar      1 <0>         0.1090
      4 C4          2.7074   -0.4516   -0.0516 C.ar      1 <0>        -0.1437
      5 C5          1.5274   -1.1631   -0.0462 C.ar      1 <0>        -0.0812
      6 C6          0.3062   -0.4875   -0.1240 C.ar      1 <0>        -0.0363
      7 C7         -0.9584   -1.2437   -0.1186 C.2       1 <0>        -0.0767
      8 C8         -1.8409   -1.3217   -1.1277 C.2       1 <0>        -0.0908
      9 C9         -2.9846   -2.1705   -0.7568 C.ar      1 <0>        -0.0545
     10 C10        -4.1319   -2.5461   -1.4621 C.ar      1 <0>        -0.1200
     11 C11        -5.0687   -3.3717   -0.8666 C.ar      1 <0>         0.1138
     12 C12        -4.8736   -3.8283    0.4306 C.ar      1 <0>        -0.1368
     13 C13        -3.7400   -3.4595    1.1331 C.ar      1 <0>        -0.0784
     14 C14        -2.8007   -2.6400    0.5505 C.ar      1 <0>        -0.0992
     15 C15        -1.4917   -2.0725    1.0135 C.3       1 <0>         0.0203
     16 C16        -0.5059   -3.1735    1.4238 C.3       1 <0>        -0.0617
     17 C17         0.2827   -2.5835    2.5761 C.ar      1 <0>        -0.1075
     18 C18         1.4808   -2.9870    3.1415 C.ar      1 <0>        -0.0636
     19 C19         2.0216   -2.2870    4.2010 C.ar      1 <0>        -0.1999
     20 C20         1.3626   -1.1736    4.7020 C.ar      1 <0>         0.1142
     21 C21         0.1635   -0.7699    4.1360 C.ar      1 <0>        -0.1277
     22 C22        -0.3768   -1.4743    3.0746 C.ar      1 <0>        -0.0445
     23 C23        -1.6550   -1.2435    2.2933 C.3       1 <0>        -0.0612
     24 O1          1.8911   -0.4810    5.7451 O.3       1 <0>        -0.3284
     25 C24         3.1293   -0.9553    6.2779 C.3       1 <0>         0.0270
     26 C25         3.5639   -0.0556    7.4366 C.3       1 <0>        -0.0009
     27 N1          2.5807   -0.1485    8.5241 N.4       1 <0>        -0.3840
     28 C26         2.9136    0.8288    9.5674 C.3       1 <0>        -0.0071
     29 C27         1.8474    0.7927   10.6644 C.3       1 <0>        -0.1467
     30 C28         1.7980   -0.6110   11.2746 C.3       1 <0>        -0.1390
     31 C29         1.5238   -1.6300   10.1649 C.3       1 <0>        -0.1453
     32 C30         2.6020   -1.5041    9.0865 C.3       1 <0>        -0.0130
     33 O2         -6.1836   -3.7368   -1.5527 O.3       1 <0>        -0.4968
     34 O3          3.8507    1.6320   -0.1396 O.3       1 <0>        -0.4970
     35 H1         -0.6529    1.4343   -0.2628 H         1 <0>         0.1291
     36 H2          1.4609    2.6886   -0.2761 H         1 <0>         0.1314
     37 H3          3.6515   -0.9727    0.0081 H         1 <0>         0.1287
     38 H4          1.5461   -2.2411    0.0176 H         1 <0>         0.1263
     39 H5         -1.7272   -0.8281   -2.0816 H         1 <0>         0.1383
     40 H6         -4.2868   -2.1919   -2.4705 H         1 <0>         0.1325
     41 H7         -5.6081   -4.4720    0.8918 H         1 <0>         0.1354
     42 H8         -3.5922   -3.8157    2.1419 H         1 <0>         0.1273
     43 H9         -1.0453   -4.0628    1.7498 H         1 <0>         0.0917
     44 H10         0.1587   -3.4153    0.5943 H         1 <0>         0.0852
     45 H11         1.9942   -3.8536    2.7518 H         1 <0>         0.1285
     46 H12         2.9557   -2.6056    4.6394 H         1 <0>         0.1275
     47 H13        -0.3506    0.0969    4.5244 H         1 <0>         0.1293
     48 H14        -1.7643   -0.1868    2.0490 H         1 <0>         0.0871
     49 H15        -2.5160   -1.5924    2.8636 H         1 <0>         0.0941
     50 H16         3.0024   -1.9761    6.6384 H         1 <0>         0.0858
     51 H17         3.8910   -0.9373    5.4984 H         1 <0>         0.1084
     52 H18         4.5396   -0.3776    7.8004 H         1 <0>         0.1486
     53 H19         3.6273    0.9763    7.0913 H         1 <0>         0.1421
     54 H20         3.8849    0.5841    9.9973 H         1 <0>         0.1291
     55 H21         2.9515    1.8269    9.1309 H         1 <0>         0.1309
     56 H22         2.0973    1.5178   11.4389 H         1 <0>         0.1131
     57 H23         0.8756    1.0376   10.2356 H         1 <0>         0.0879
     58 H24         2.7535   -0.8363   11.7484 H         1 <0>         0.0821
     59 H25         1.0016   -0.6577   12.0174 H         1 <0>         0.0947
     60 H26         1.5424   -2.6367   10.5824 H         1 <0>         0.1122
     61 H27         0.5453   -1.4355    9.7258 H         1 <0>         0.0878
     62 H28         2.4099   -2.2284    8.2949 H         1 <0>         0.1273
     63 H29         3.5799   -1.6991    9.5266 H         1 <0>         0.1301
     64 H30        -6.0813   -4.5507   -2.0648 H         1 <0>         0.3951
     65 H31         4.1610    1.8862    0.7402 H         1 <0>         0.3887
     66 H32         1.6602    0.0498    8.1617 H         1 <0>         0.4295
@<TRIPOS>BOND
     1    1    6 ar
     2    1    2 ar
     3    1   35 1
     4    2    3 ar
     5    2   36 1
     6    3    4 ar
     7    3   34 1
     8    4    5 ar
     9    4   37 1
    10    5    6 ar
    11    5   38 1
    12    6    7 1
    13    7   15 1
    14    7    8 2
    15    8    9 1
    16    8   39 1
    17    9   14 ar
    18    9   10 ar
    19   10   11 ar
    20   10   40 1
    21   11   12 ar
    22   11   33 1
    23   12   13 ar
    24   12   41 1
    25   13   14 ar
    26   13   42 1
    27   14   15 1
    28   15   23 1
    29   15   16 1
    30   16   17 1
    31   16   43 1
    32   16   44 1
    33   17   22 ar
    34   17   18 ar
    35   18   19 ar
    36   18   45 1
    37   19   20 ar
    38   19   46 1
    39   20   21 ar
    40   20   24 1
    41   21   22 ar
    42   21   47 1
    43   22   23 1
    44   23   48 1
    45   23   49 1
    46   24   25 1
    47   25   26 1
    48   25   50 1
    49   25   51 1
    50   26   27 1
    51   26   52 1
    52   26   53 1
    53   27   32 1
    54   27   28 1
    55   27   66 1
    56   28   29 1
    57   28   54 1
    58   28   55 1
    59   29   30 1
    60   29   56 1
    61   29   57 1
    62   30   31 1
    63   30   58 1
    64   30   59 1
    65   31   32 1
    66   31   60 1
    67   31   61 1
    68   32   62 1
    69   32   63 1
    70   33   64 1
    71   34   65 1
@<TRIPOS>MOLECULE
CHEMBL7855
   32    35     0     0     0
SMALL
USER_CHARGES

@<TRIPOS>ATOM
      1 C1         -0.0164    1.3587    0.0095 C.ar      1 <0>        -0.1157
      2 C2          1.1669    2.0901    0.0021 C.ar      1 <0>        -0.1105
      3 C3          2.3777    1.4605   -0.0128 C.ar      1 <0>        -0.1072
      4 C4          2.4314    0.0637   -0.0207 C.ar      1 <0>        -0.0376
      5 C5          1.2302   -0.6834   -0.0133 C.ar      1 <0>        -0.0509
      6 C6          0.0021   -0.0041    0.0020 C.ar      1 <0>        -0.1027
      7 C7          1.2806   -2.0934   -0.0223 C.ar      1 <0>        -0.0957
      8 C8          2.4627   -2.7515   -0.0381 C.ar      1 <0>        -0.1056
      9 C9          3.6867   -2.0609   -0.0461 C.ar      1 <0>        -0.0340
     10 C10         3.7075   -0.6533   -0.0372 C.ar      1 <0>        -0.0337
     11 C11         4.9326    0.0365   -0.0447 C.ar      1 <0>        -0.0998
     12 C12         6.1141   -0.6225   -0.0601 C.ar      1 <0>        -0.0947
     13 C13         6.1643   -2.0323   -0.0687 C.ar      1 <0>        -0.0596
     14 C14         4.9628   -2.7795   -0.0633 C.ar      1 <0>        -0.0327
     15 C15         5.0109   -4.1757   -0.0724 C.ar      1 <0>        -0.0970
     16 C16         6.2158   -4.8170   -0.0883 C.ar      1 <0>        -0.1225
     17 C17         7.4077   -4.0958   -0.0958 C.ar      1 <0>         0.0841
     18 C18         7.3946   -2.7127   -0.0842 C.ar      1 <0>         0.0942
     19 O1          8.5622   -2.0167   -0.0917 O.3       1 <0>        -0.4849
     20 O2          8.5956   -4.7581   -0.1117 O.3       1 <0>        -0.4918
     21 H1         -0.9631    1.8782    0.0259 H         1 <0>         0.1258
     22 H2          1.1270    3.1693    0.0079 H         1 <0>         0.1265
     23 H3          3.2899    2.0386   -0.0187 H         1 <0>         0.1289
     24 H4         -0.9245   -0.5589    0.0082 H         1 <0>         0.1297
     25 H5          0.3595   -2.6573   -0.0161 H         1 <0>         0.1308
     26 H6          2.4657   -3.8315   -0.0443 H         1 <0>         0.1293
     27 H7          4.9305    1.1165   -0.0385 H         1 <0>         0.1302
     28 H8          7.0354   -0.0590   -0.0662 H         1 <0>         0.1342
     29 H9          4.0947   -4.7476   -0.0664 H         1 <0>         0.1367
     30 H10         6.2455   -5.8966   -0.0949 H         1 <0>         0.1379
     31 H11         8.9085   -1.8201    0.7895 H         1 <0>         0.3941
     32 H12         8.9303   -4.9442   -0.9997 H         1 <0>         0.3943
@<TRIPOS>BOND
     1    1    6 ar
     2    1    2 ar
     3    1   21 1
     4    2    3 ar
     5    2   22 1
     6    3    4 ar
     7    3   23 1
     8    4   10 ar
     9    4    5 ar
    10    5    6 ar
    11    5    7 ar
    12    6   24 1
    13    7    8 ar
    14    7   25 1
    15    8    9 ar
    16    8   26 1
    17    9   14 ar
    18    9   10 ar
    19   10   11 ar
    20   11   12 ar
    21   11   27 1
    22   12   13 ar
    23   12   28 1
    24   13   18 ar
    25   13   14 ar
    26   14   15 ar
    27   15   16 ar
    28   15   29 1
    29   16   17 ar
    30   16   30 1
    31   17   18 ar
    32   17   20 1
    33   18   19 1
    34   19   31 1
    35   20   32 1
@<TRIPOS>MOLECULE
CHEMBL423035
   64    68     0     0     0
SMALL
USER_CHARGES

@<TRIPOS>ATOM
      1 C1         -1.5640   -1.0542    3.5581 C.ar      1 <0>        -0.0734
      2 C2         -1.1901   -1.3774    4.8437 C.ar      1 <0>        -0.1442
      3 C3         -0.8568   -2.6880    5.1639 C.ar      1 <0>         0.1252
      4 C4         -0.8990   -3.6780    4.1897 C.ar      1 <0>        -0.1412
      5 C5         -1.2717   -3.3641    2.9014 C.ar      1 <0>        -0.0740
      6 C6         -1.6084   -2.0470    2.5747 C.ar      1 <0>        -0.0428
      7 C7         -2.0084   -1.7061    1.1975 C.2       1 <0>        -0.0551
      8 C8         -1.3868   -2.0613    0.0065 C.2       1 <0>        -0.1660
      9 C9         -1.9865   -1.5934   -1.2459 C.ar      1 <0>        -0.0757
     10 C10        -1.5401   -1.8237   -2.5668 C.ar      1 <0>        -0.0617
     11 C11        -2.2224   -1.3087   -3.6375 C.ar      1 <0>        -0.1340
     12 C12        -3.3729   -0.5456   -3.4595 C.ar      1 <0>         0.1415
     13 C13        -3.8353   -0.3032   -2.1760 C.ar      1 <0>        -0.1007
     14 C14        -3.1518   -0.8190   -1.0948 C.ar      1 <0>        -0.1011
     15 S1         -3.4096   -0.7461    0.6593 S.3       1 <0>         0.1042
     16 O1         -4.0361   -0.0428   -4.5343 O.3       1 <0>        -0.4898
     17 C15        -0.1726   -2.8756    0.0032 C.2       1 <0>         0.4559
     18 O2         -0.2509   -4.0850   -0.1167 O.2       1 <0>        -0.4135
     19 C16         1.1508   -2.2307    0.1455 C.ar      1 <0>        -0.0938
     20 C17         1.2395   -0.8607    0.3981 C.ar      1 <0>        -0.0806
     21 C18         2.4769   -0.2654    0.5297 C.ar      1 <0>        -0.0324
     22 C19         3.6287   -1.0230    0.4115 C.ar      1 <0>        -0.6416
     23 C20         3.5478   -2.3815    0.1611 C.ar      1 <0>        -0.0316
     24 C21         2.3165   -2.9904    0.0335 C.ar      1 <0>        -0.0794
     25 S2          5.2053   -0.2545    0.5798 S.o2      1 <0>         2.5109
     26 O3          6.0910   -1.0765   -0.1679 O.2       1 <0>        -0.9068
     27 O4          4.9893    1.1007    0.2109 O.2       1 <0>        -0.9069
     28 C22         5.5920   -0.3665    2.3486 C.3       1 <0>        -0.6749
     29 C23         6.9545    0.2767    2.6144 C.3       1 <0>         0.0031
     30 N1          7.2677    0.1860    4.0468 N.4       1 <0>        -0.3767
     31 C24         6.2980    0.9813    4.8095 C.3       1 <0>        -0.0176
     32 C25         6.5702    0.8253    6.3071 C.3       1 <0>        -0.1453
     33 C26         7.9885    1.3133    6.6162 C.3       1 <0>        -0.1405
     34 C27         8.9860    0.5276    5.7601 C.3       1 <0>        -0.1458
     35 C28         8.6242    0.6946    4.2827 C.3       1 <0>        -0.0120
     36 O5         -0.4883   -3.0020    6.4325 O.3       1 <0>        -0.5000
     37 H1         -1.8269   -0.0362    3.3111 H         1 <0>         0.1360
     38 H2         -1.1555   -0.6112    5.6040 H         1 <0>         0.1377
     39 H3         -0.6388   -4.6951    4.4430 H         1 <0>         0.1377
     40 H4         -1.3036   -4.1340    2.1448 H         1 <0>         0.1343
     41 H5         -0.6502   -2.4123   -2.7343 H         1 <0>         0.1274
     42 H6         -1.8610   -1.4979   -4.6374 H         1 <0>         0.1411
     43 H7         -4.7264    0.2874   -2.0229 H         1 <0>         0.1442
     44 H8         -4.7200   -0.6299   -4.8845 H         1 <0>         0.4005
     45 H9          0.3413   -0.2681    0.4899 H         1 <0>         0.1445
     46 H10         2.5469    0.7945    0.7252 H         1 <0>         0.1516
     47 H11         4.4506   -2.9672    0.0699 H         1 <0>         0.1527
     48 H12         2.2547   -4.0516   -0.1571 H         1 <0>         0.1508
     49 H13         4.8258    0.1554    2.9218 H         1 <0>         0.1598
     50 H14         5.6199   -1.4140    2.6487 H         1 <0>         0.1618
     51 H15         7.7208   -0.2452    2.0412 H         1 <0>         0.1489
     52 H16         6.9266    1.3242    2.3142 H         1 <0>         0.1469
     53 H17         6.3908    2.0311    4.5312 H         1 <0>         0.1338
     54 H18         5.2889    0.6350    4.5860 H         1 <0>         0.1305
     55 H19         5.8503    1.4180    6.8716 H         1 <0>         0.1140
     56 H20         6.4774   -0.2242    6.5866 H         1 <0>         0.0884
     57 H21         8.0670    2.3756    6.3847 H         1 <0>         0.0834
     58 H22         8.2076    1.1519    7.6716 H         1 <0>         0.0957
     59 H23         9.9928    0.9074    5.9335 H         1 <0>         0.1150
     60 H24         8.9433   -0.5281    6.0282 H         1 <0>         0.0887
     61 H25         9.3326    0.1366    3.6703 H         1 <0>         0.1346
     62 H26         8.6675    1.7505    4.0156 H         1 <0>         0.1328
     63 H27        -1.2251   -3.2576    7.0043 H         1 <0>         0.3997
     64 H28         7.2150   -0.7776    4.3412 H         1 <0>         0.4255
@<TRIPOS>BOND
     1    1    6 ar
     2    1    2 ar
     3    1   37 1
     4    2    3 ar
     5    2   38 1
     6    3    4 ar
     7    3   36 1
     8    4    5 ar
     9    4   39 1
    10    5    6 ar
    11    5   40 1
    12    6    7 1
    13    7   15 1
    14    7    8 2
    15    8    9 1
    16    8   17 1
    17    9   14 ar
    18    9   10 ar
    19   10   11 ar
    20   10   41 1
    21   11   12 ar
    22   11   42 1
    23   12   13 ar
    24   12   16 1
    25   13   14 ar
    26   13   43 1
    27   14   15 1
    28   16   44 1
    29   17   18 2
    30   17   19 1
    31   19   24 ar
    32   19   20 ar
    33   20   21 ar
    34   20   45 1
    35   21   22 ar
    36   21   46 1
    37   22   23 ar
    38   22   25 1
    39   23   24 ar
    40   23   47 1
    41   24   48 1
    42   25   26 2
    43   25   27 2
    44   25   28 1
    45   28   29 1
    46   28   49 1
    47   28   50 1
    48   29   30 1
    49   29   51 1
    50   29   52 1
    51   30   35 1
    52   30   31 1
    53   30   64 1
    54   31   32 1
    55   31   53 1
    56   31   54 1
    57   32   33 1
    58   32   55 1
    59   32   56 1
    60   33   34 1
    61   33   57 1
    62   33   58 1
    63   34   35 1
    64   34   59 1
    65   34   60 1
    66   35   61 1
    67   35   62 1
    68   36   63 1
@<TRIPOS>MOLECULE
CHEMBL306878
   41    43     0     0     0
SMALL
USER_CHARGES

@<TRIPOS>ATOM
      1 C1         -0.0187    1.5258    0.0104 C.3       1 <0>        -0.1622
      2 C2          0.0021   -0.0041    0.0020 C.3       1 <0>        -0.1058
      3 C3         -1.4333   -0.5336    0.0129 C.3       1 <0>        -0.0157
      4 C4         -2.0869   -0.2433    1.3421 C.ar      1 <0>        -0.0721
      5 C5         -2.3697    0.9230    2.0120 C.ar      1 <0>        -0.1269
      6 C6         -2.9943    0.8766    3.2528 C.ar      1 <0>         0.1097
      7 C7         -3.3329   -0.3477    3.8153 C.ar      1 <0>        -0.1448
      8 C8         -3.0524   -1.5201    3.1494 C.ar      1 <0>        -0.0790
      9 C9         -2.4230   -1.4810    1.8994 C.ar      1 <0>        -0.0740
     10 C10        -2.0098   -2.5499    0.9783 C.2       1 <0>        -0.0631
     11 C11        -1.4361   -2.0388   -0.1187 C.2       1 <0>        -0.0887
     12 C12        -0.9013   -2.8095   -1.2550 C.ar      1 <0>        -0.0342
     13 C13         0.4686   -2.7904   -1.5323 C.ar      1 <0>        -0.0897
     14 C14         0.9642   -3.5132   -2.5958 C.ar      1 <0>        -0.1429
     15 C15         0.1048   -4.2593   -3.3919 C.ar      1 <0>         0.1071
     16 C16        -1.2573   -4.2810   -3.1206 C.ar      1 <0>        -0.1427
     17 C17        -1.7614   -3.5665   -2.0556 C.ar      1 <0>        -0.0885
     18 O1          0.5979   -4.9700   -4.4396 O.3       1 <0>        -0.4999
     19 C18        -2.2050   -4.0221    1.2342 C.3       1 <0>        -0.0788
     20 C19        -1.0419   -4.5521    2.0753 C.3       1 <0>        -0.1448
     21 O2         -3.2741    2.0291    3.9156 O.3       1 <0>        -0.4970
     22 H1          1.0039    1.9031    0.0027 H         1 <0>         0.0587
     23 H2         -0.5459    1.8868   -0.8726 H         1 <0>         0.0562
     24 H3         -0.5289    1.8773    0.9072 H         1 <0>         0.0621
     25 H4          0.5123   -0.3556   -0.8948 H         1 <0>         0.0733
     26 H5          0.5293   -0.3651    0.8851 H         1 <0>         0.0668
     27 H6         -2.0070   -0.0833   -0.7972 H         1 <0>         0.1039
     28 H7         -2.1071    1.8748    1.5744 H         1 <0>         0.1333
     29 H8         -3.8181   -0.3801    4.7796 H         1 <0>         0.1316
     30 H9         -3.3175   -2.4692    3.5914 H         1 <0>         0.1270
     31 H10         1.1376   -2.2100   -0.9142 H         1 <0>         0.1302
     32 H11         2.0225   -3.4991   -2.8108 H         1 <0>         0.1309
     33 H12        -1.9217   -4.8624   -3.7427 H         1 <0>         0.1310
     34 H13        -2.8200   -3.5875   -1.8427 H         1 <0>         0.1282
     35 H14         0.8574   -5.8739   -4.2144 H         1 <0>         0.3921
     36 H15        -3.1412   -4.1766    1.7706 H         1 <0>         0.0722
     37 H16        -2.2385   -4.5548    0.2839 H         1 <0>         0.0750
     38 H17        -0.1057   -4.3976    1.5389 H         1 <0>         0.0553
     39 H18        -1.0084   -4.0194    3.0256 H         1 <0>         0.0556
     40 H19        -1.1831   -5.6170    2.2604 H         1 <0>         0.0586
     41 H20        -4.1441    2.3987    3.7117 H         1 <0>         0.3919
@<TRIPOS>BOND
     1    1    2 1
     2    1   22 1
     3    1   23 1
     4    1   24 1
     5    2    3 1
     6    2   25 1
     7    2   26 1
     8    3   11 1
     9    3    4 1
    10    3   27 1
    11    4    9 ar
    12    4    5 ar
    13    5    6 ar
    14    5   28 1
    15    6    7 ar
    16    6   21 1
    17    7    8 ar
    18    7   29 1
    19    8    9 ar
    20    8   30 1
    21    9   10 1
    22   10   11 2
    23   10   19 1
    24   11   12 1
    25   12   17 ar
    26   12   13 ar
    27   13   14 ar
    28   13   31 1
    29   14   15 ar
    30   14   32 1
    31   15   16 ar
    32   15   18 1
    33   16   17 ar
    34   16   33 1
    35   17   34 1
    36   18   35 1
    37   19   20 1
    38   19   36 1
    39   19   37 1
    40   20   38 1
    41   20   39 1
    42   20   40 1
    43   21   41 1
@<TRIPOS>MOLECULE
CHEMBL306878__1
   41    43     0     0     0
SMALL
USER_CHARGES

@<TRIPOS>ATOM
      1 C1         -0.0187    1.5258    0.0104 C.3       1 <0>        -0.1618
      2 C2          0.0021   -0.0041    0.0020 C.3       1 <0>        -0.1005
      3 C3         -1.4333   -0.5336    0.0129 C.3       1 <0>        -0.0157
      4 C4         -2.1121   -0.2291   -1.3004 C.ar      1 <0>        -0.0722
      5 C5         -2.4075    0.9443   -1.9522 C.ar      1 <0>        -0.1268
      6 C6         -3.0557    0.9111   -3.1813 C.ar      1 <0>         0.1098
      7 C7         -3.4052   -0.3070   -3.7503 C.ar      1 <0>        -0.1449
      8 C8         -3.1122   -1.4865   -3.1025 C.ar      1 <0>        -0.0790
      9 C9         -2.4590   -1.4608   -1.8644 C.ar      1 <0>        -0.0740
     10 C10        -2.0283   -2.5394   -0.9629 C.2       1 <0>        -0.0634
     11 C11        -1.4337   -2.0401    0.1284 C.2       1 <0>        -0.0884
     12 C12        -0.8774   -2.8229    1.2458 C.ar      1 <0>        -0.0336
     13 C13        -1.4452   -2.7278    2.5196 C.ar      1 <0>        -0.0879
     14 C14        -0.9216   -3.4622    3.5615 C.ar      1 <0>        -0.1424
     15 C15         0.1688   -4.2955    3.3476 C.ar      1 <0>         0.1070
     16 C16         0.7367   -4.3930    2.0839 C.ar      1 <0>        -0.1428
     17 C17         0.2163   -3.6673    1.0343 C.ar      1 <0>        -0.0877
     18 O1          0.6818   -5.0173    4.3781 O.3       1 <0>        -0.4999
     19 C18        -2.2294   -4.0088   -1.2305 C.3       1 <0>        -0.0788
     20 C19        -3.6245   -4.4264   -0.7614 C.3       1 <0>        -0.1450
     21 O2         -3.3481    2.0706   -3.8263 O.3       1 <0>        -0.4969
     22 H1          1.0039    1.9031    0.0027 H         1 <0>         0.0583
     23 H2         -0.5459    1.8868   -0.8726 H         1 <0>         0.0611
     24 H3         -0.5289    1.8773    0.9072 H         1 <0>         0.0562
     25 H4          0.5123   -0.3556   -0.8948 H         1 <0>         0.0659
     26 H5          0.5293   -0.3651    0.8851 H         1 <0>         0.0707
     27 H6         -1.9913   -0.0921    0.8385 H         1 <0>         0.1030
     28 H7         -2.1364    1.8913   -1.5096 H         1 <0>         0.1333
     29 H8         -3.9095   -0.3292   -4.7051 H         1 <0>         0.1316
     30 H9         -3.3865   -2.4308   -3.5492 H         1 <0>         0.1270
     31 H10        -2.2926   -2.0795    2.6870 H         1 <0>         0.1276
     32 H11        -1.3597   -3.3894    4.5460 H         1 <0>         0.1308
     33 H12         1.5847   -5.0420    1.9225 H         1 <0>         0.1309
     34 H13         0.6558   -3.7471    0.0510 H         1 <0>         0.1280
     35 H14         0.2833   -5.8922    4.4822 H         1 <0>         0.3920
     36 H15        -2.1330   -4.2000   -2.2993 H         1 <0>         0.0723
     37 H16        -1.4772   -4.5829   -0.6894 H         1 <0>         0.0750
     38 H17        -3.7209   -4.2352    0.3074 H         1 <0>         0.0552
     39 H18        -4.3767   -3.8524   -1.3025 H         1 <0>         0.0557
     40 H19        -3.7699   -5.4892   -0.9549 H         1 <0>         0.0586
     41 H20        -2.6515    2.3746   -4.4241 H         1 <0>         0.3917
@<TRIPOS>BOND
     1    1    2 1
     2    1   22 1
     3    1   23 1
     4    1   24 1
     5    2    3 1
     6    2   25 1
     7    2   26 1
     8    3   11 1
     9    3    4 1
    10    3   27 1
    11    4    9 ar
    12    4    5 ar
    13    5    6 ar
    14    5   28 1
    15    6    7 ar
    16    6   21 1
    17    7    8 ar
    18    7   29 1
    19    8    9 ar
    20    8   30 1
    21    9   10 1
    22   10   11 2
    23   10   19 1
    24   11   12 1
    25   12   17 ar
    26   12   13 ar
    27   13   14 ar
    28   13   31 1
    29   14   15 ar
    30   14   32 1
    31   15   16 ar
    32   15   18 1
    33   16   17 ar
    34   16   33 1
    35   17   34 1
    36   18   35 1
    37   19   20 1
    38   19   36 1
    39   19   37 1
    40   20   38 1
    41   20   39 1
    42   20   40 1
    43   21   41 1
@<TRIPOS>MOLECULE
CHEMBL296526
   67    72     0     0     0
SMALL
USER_CHARGES

@<TRIPOS>ATOM
      1 C1         -2.5507   -2.5372    5.8750 C.3       1 <0>         0.0240
      2 O1         -1.9709   -2.7464    4.5858 O.3       1 <0>        -0.3066
      3 C2         -2.7994   -2.6454    3.5128 C.ar      1 <0>         0.1593
      4 C3         -4.1469   -2.3447    3.6910 C.ar      1 <0>        -0.1950
      5 C4         -4.9976   -2.2388    2.6224 C.ar      1 <0>        -0.0358
      6 C5         -4.5295   -2.4330    1.3032 C.ar      1 <0>        -0.1039
      7 C6         -3.1633   -2.7358    1.1518 C.ar      1 <0>        -0.0779
      8 C7         -2.3099   -2.8353    2.2306 C.ar      1 <0>        -0.1114
      9 S1         -2.9409   -2.9091   -0.6001 S.3       1 <0>         0.1067
     10 C8         -4.6101   -2.5909   -1.1361 C.2       1 <0>        -0.0602
     11 C9         -5.2899   -2.3603    0.0530 C.2       1 <0>        -0.1530
     12 C10        -6.7205   -2.0548    0.0569 C.2       1 <0>         0.4626
     13 O2         -7.0961   -0.8969    0.0130 O.2       1 <0>        -0.4294
     14 C11        -7.7094   -3.1504    0.1141 C.ar      1 <0>        -0.1822
     15 C12        -7.2836   -4.4702    0.2855 C.ar      1 <0>        -0.0196
     16 C13        -8.2088   -5.4889    0.3383 C.ar      1 <0>        -0.1530
     17 C14        -9.5646   -5.2056    0.2212 C.ar      1 <0>         0.1470
     18 C15        -9.9921   -3.8942    0.0501 C.ar      1 <0>        -0.2160
     19 C16        -9.0736   -2.8692    0.0025 C.ar      1 <0>        -0.0167
     20 O3        -10.4733   -6.2124    0.2737 O.3       1 <0>        -0.3244
     21 C17       -11.8500   -5.8510    0.1467 C.3       1 <0>         0.0229
     22 C18       -12.7173   -7.1087    0.2293 C.3       1 <0>        -0.0009
     23 N1        -12.5651   -7.7222    1.5554 N.4       1 <0>        -0.3845
     24 C19       -13.2790   -9.0044    1.5845 C.3       1 <0>        -0.0072
     25 C20       -13.0566   -9.6858    2.9364 C.3       1 <0>        -0.1467
     26 C21       -13.5857   -8.7796    4.0518 C.3       1 <0>        -0.1391
     27 C22       -12.8874   -7.4195    3.9655 C.3       1 <0>        -0.1454
     28 C23       -13.1161   -6.8221    2.5755 C.3       1 <0>        -0.0135
     29 C24        -5.1416   -2.5753   -2.5111 C.ar      1 <0>        -0.0222
     30 C25        -5.9354   -1.5091   -2.9437 C.ar      1 <0>        -0.0784
     31 C26        -6.4306   -1.4965   -4.2296 C.ar      1 <0>        -0.0968
     32 C27        -6.1442   -2.5400   -5.0992 C.ar      1 <0>         0.0519
     33 C28        -5.3526   -3.6074   -4.6740 C.ar      1 <0>         0.0353
     34 C29        -4.8484   -3.6238   -3.3878 C.ar      1 <0>        -0.0743
     35 O4         -5.2226   -4.4915   -5.7063 O.3       1 <0>        -0.3035
     36 C30        -6.2745   -4.1589   -6.6315 C.3       1 <0>         0.2125
     37 O5         -6.5075   -2.7578   -6.3962 O.3       1 <0>        -0.3028
     38 H1         -1.7827   -2.6463    6.6408 H         1 <0>         0.1073
     39 H2         -2.9734   -1.5337    5.9248 H         1 <0>         0.0602
     40 H3         -3.3381   -3.2719    6.0429 H         1 <0>         0.0585
     41 H4         -4.5286   -2.1925    4.6898 H         1 <0>         0.1380
     42 H5         -6.0384   -2.0043    2.7902 H         1 <0>         0.1257
     43 H6         -1.2658   -3.0647    2.0770 H         1 <0>         0.1455
     44 H7         -6.2304   -4.6911    0.3762 H         1 <0>         0.1429
     45 H8         -7.8805   -6.5092    0.4704 H         1 <0>         0.1407
     46 H9        -11.0464   -3.6782   -0.0412 H         1 <0>         0.1352
     47 H10        -9.4069   -1.8499   -0.1253 H         1 <0>         0.1436
     48 H11       -12.1222   -5.1684    0.9518 H         1 <0>         0.0894
     49 H12       -12.0101   -5.3617   -0.8141 H         1 <0>         0.1123
     50 H13       -13.7618   -6.8409    0.0706 H         1 <0>         0.1503
     51 H14       -12.4034   -7.8174   -0.5371 H         1 <0>         0.1434
     52 H15       -14.3448   -8.8297    1.4372 H         1 <0>         0.1295
     53 H16       -12.9035   -9.6470    0.7881 H         1 <0>         0.1313
     54 H17       -13.5889  -10.6367    2.9567 H         1 <0>         0.1134
     55 H18       -11.9910   -9.8612    3.0847 H         1 <0>         0.0881
     56 H19       -14.6609   -8.6455    3.9332 H         1 <0>         0.0823
     57 H20       -13.3787   -9.2349    5.0203 H         1 <0>         0.0949
     58 H21       -13.2987   -6.7505    4.7214 H         1 <0>         0.1125
     59 H22       -11.8183   -7.5478    4.1352 H         1 <0>         0.0879
     60 H23       -12.6203   -5.8535    2.5107 H         1 <0>         0.1272
     61 H24       -14.1853   -6.6939    2.4070 H         1 <0>         0.1307
     62 H25        -6.1608   -0.6956   -2.2701 H         1 <0>         0.1458
     63 H26        -7.0440   -0.6721   -4.5619 H         1 <0>         0.1450
     64 H27        -4.2318   -4.4473   -3.0590 H         1 <0>         0.1431
     65 H28        -5.9485   -4.3258   -7.6581 H         1 <0>         0.1376
     66 H29        -7.1722   -4.7380   -6.4148 H         1 <0>         0.0868
     67 H30       -11.5860   -7.8804    1.7413 H         1 <0>         0.4292
@<TRIPOS>BOND
     1    1    2 1
     2    1   38 1
     3    1   39 1
     4    1   40 1
     5    2    3 1
     6    3    8 ar
     7    3    4 ar
     8    4    5 ar
     9    4   41 1
    10    5    6 ar
    11    5   42 1
    12    6   11 1
    13    6    7 ar
    14    7    8 ar
    15    7    9 1
    16    8   43 1
    17    9   10 1
    18   10   11 2
    19   10   29 1
    20   11   12 1
    21   12   13 2
    22   12   14 1
    23   14   19 ar
    24   14   15 ar
    25   15   16 ar
    26   15   44 1
    27   16   17 ar
    28   16   45 1
    29   17   18 ar
    30   17   20 1
    31   18   19 ar
    32   18   46 1
    33   19   47 1
    34   20   21 1
    35   21   22 1
    36   21   48 1
    37   21   49 1
    38   22   23 1
    39   22   50 1
    40   22   51 1
    41   23   28 1
    42   23   24 1
    43   23   67 1
    44   24   25 1
    45   24   52 1
    46   24   53 1
    47   25   26 1
    48   25   54 1
    49   25   55 1
    50   26   27 1
    51   26   56 1
    52   26   57 1
    53   27   28 1
    54   27   58 1
    55   27   59 1
    56   28   60 1
    57   28   61 1
    58   29   34 ar
    59   29   30 ar
    60   30   31 ar
    61   30   62 1
    62   31   32 ar
    63   31   63 1
    64   32   37 1
    65   32   33 ar
    66   33   34 ar
    67   33   35 1
    68   34   64 1
    69   35   36 1
    70   36   37 1
    71   36   65 1
    72   36   66 1
@<TRIPOS>MOLECULE
CHEMBL56306
   66    70     0     0     0
SMALL
USER_CHARGES

@<TRIPOS>ATOM
      1 C1          0.9986    0.9796   -0.4579 C.ar      1 <0>        -0.0662
      2 C2          2.3214    1.3017   -0.6922 C.ar      1 <0>        -0.1411
      3 C3          3.2600    0.2942   -0.8612 C.ar      1 <0>         0.1134
      4 C4          2.8674   -1.0347   -0.7946 C.ar      1 <0>        -0.2021
      5 C5          1.5433   -1.3516   -0.5601 C.ar      1 <0>        -0.0683
      6 C6          0.6098   -0.3456   -0.3920 C.ar      1 <0>        -0.1205
      7 C7         -0.8338   -0.6941   -0.1359 C.3       1 <0>         0.1529
      8 N1         -1.5339   -0.8448   -1.4139 N.pl3     1 <0>        -0.6184
      9 C8         -2.2545    0.2257   -1.9622 C.ar      1 <0>         0.2110
     10 C9         -2.0727    1.5011   -1.4393 C.ar      1 <0>        -0.1777
     11 C10        -2.7742    2.5695   -1.9602 C.ar      1 <0>        -0.1036
     12 C11        -3.6619    2.3682   -3.0071 C.ar      1 <0>         0.0564
     13 C12        -3.8418    1.0978   -3.5294 C.ar      1 <0>        -0.0999
     14 C13        -3.1378    0.0235   -3.0106 C.ar      1 <0>        -0.1316
     15 C14        -3.3505   -1.3424   -3.6082 C.3       1 <0>        -0.0739
     16 C15        -2.9148   -2.4300   -2.6266 C.3       1 <0>        -0.1279
     17 C16        -1.4876   -2.1182   -2.1453 C.3       1 <0>         0.2012
     18 C17        -1.0053   -3.2147   -1.2309 C.ar      1 <0>        -0.1039
     19 C18        -1.6725   -3.4692   -0.0469 C.ar      1 <0>        -0.0842
     20 C19        -1.2322   -4.4735    0.7933 C.ar      1 <0>        -0.1439
     21 C20        -0.1199   -5.2273    0.4480 C.ar      1 <0>         0.1152
     22 C21         0.5475   -4.9702   -0.7408 C.ar      1 <0>        -0.1482
     23 C22         0.1001   -3.9682   -1.5800 C.ar      1 <0>        -0.0914
     24 O1          0.3155   -6.2155    1.2730 O.3       1 <0>        -0.5006
     25 O2         -4.3563    3.4187   -3.5208 O.3       1 <0>        -0.4981
     26 O3          4.5618    0.6085   -1.0922 O.3       1 <0>        -0.3289
     27 C23         5.4728   -0.4801   -1.2565 C.3       1 <0>         0.0277
     28 C24         6.8802    0.0657   -1.5058 C.3       1 <0>         0.0039
     29 N2          7.3451    0.7847   -0.3121 N.4       1 <0>        -0.3956
     30 C25         7.5771   -0.1694    0.8024 C.3       1 <0>        -0.0105
     31 C26         8.5533    0.5983    1.7288 C.3       1 <0>        -0.1446
     32 C27         9.4671    1.3419    0.7279 C.3       1 <0>        -0.1449
     33 C28         8.6537    1.4208   -0.5773 C.3       1 <0>        -0.0088
     34 H1          0.2684    1.7636   -0.3218 H         1 <0>         0.1350
     35 H2          2.6245    2.3370   -0.7439 H         1 <0>         0.1319
     36 H3          3.5961   -1.8208   -0.9262 H         1 <0>         0.1250
     37 H4          1.2372   -2.3860   -0.5082 H         1 <0>         0.1347
     38 H5         -0.8884   -1.6297    0.4208 H         1 <0>         0.0945
     39 H6         -1.3024    0.1013    0.4435 H         1 <0>         0.0864
     40 H7         -1.3817    1.6560   -0.6239 H         1 <0>         0.1251
     41 H8         -2.6327    3.5599   -1.5535 H         1 <0>         0.1273
     42 H9         -4.5336    0.9443   -4.3444 H         1 <0>         0.1283
     43 H10        -4.4070   -1.4719   -3.8429 H         1 <0>         0.0813
     44 H11        -2.7659   -1.4293   -4.5241 H         1 <0>         0.0746
     45 H12        -3.5949   -2.4469   -1.7749 H         1 <0>         0.0754
     46 H13        -2.9276   -3.3989   -3.1258 H         1 <0>         0.0816
     47 H14        -0.8178   -2.0285   -3.0006 H         1 <0>         0.0748
     48 H15        -2.5384   -2.8822    0.2214 H         1 <0>         0.1310
     49 H16        -1.7533   -4.6715    1.7183 H         1 <0>         0.1332
     50 H17         1.4138   -5.5555   -1.0118 H         1 <0>         0.1305
     51 H18         0.6167   -3.7706   -2.5076 H         1 <0>         0.1276
     52 H19        -0.0799   -7.0797    1.0944 H         1 <0>         0.3968
     53 H20        -3.9067    3.8690   -4.2490 H         1 <0>         0.3849
     54 H21         5.4748   -1.0916   -0.3542 H         1 <0>         0.0848
     55 H22         5.1630   -1.0880   -2.1066 H         1 <0>         0.1071
     56 H23         7.5580   -0.7609   -1.7191 H         1 <0>         0.1483
     57 H24         6.8601    0.7477   -2.3559 H         1 <0>         0.1411
     58 H25         6.6444   -0.3875    1.3226 H         1 <0>         0.1332
     59 H26         8.0371   -1.0865    0.4343 H         1 <0>         0.1348
     60 H27         8.0126    1.3064    2.3569 H         1 <0>         0.0984
     61 H28         9.1327   -0.0953    2.3382 H         1 <0>         0.1174
     62 H29         9.6931    2.3435    1.0939 H         1 <0>         0.1057
     63 H30        10.3874    0.7806    0.5667 H         1 <0>         0.1045
     64 H31         9.1731    0.8846   -1.3716 H         1 <0>         0.1313
     65 H32         8.5090    2.4629   -0.8623 H         1 <0>         0.1329
     66 H33         6.6683    1.4816   -0.0396 H         1 <0>         0.4336
@<TRIPOS>BOND
     1    1    6 ar
     2    1    2 ar
     3    1   34 1
     4    2    3 ar
     5    2   35 1
     6    3    4 ar
     7    3   26 1
     8    4    5 ar
     9    4   36 1
    10    5    6 ar
    11    5   37 1
    12    6    7 1
    13    7    8 1
    14    7   38 1
    15    7   39 1
    16    8   17 1
    17    8    9 1
    18    9   14 ar
    19    9   10 ar
    20   10   11 ar
    21   10   40 1
    22   11   12 ar
    23   11   41 1
    24   12   13 ar
    25   12   25 1
    26   13   14 ar
    27   13   42 1
    28   14   15 1
    29   15   16 1
    30   15   43 1
    31   15   44 1
    32   16   17 1
    33   16   45 1
    34   16   46 1
    35   17   18 1
    36   17   47 1
    37   18   23 ar
    38   18   19 ar
    39   19   20 ar
    40   19   48 1
    41   20   21 ar
    42   20   49 1
    43   21   22 ar
    44   21   24 1
    45   22   23 ar
    46   22   50 1
    47   23   51 1
    48   24   52 1
    49   25   53 1
    50   26   27 1
    51   27   28 1
    52   27   54 1
    53   27   55 1
    54   28   29 1
    55   28   56 1
    56   28   57 1
    57   29   33 1
    58   29   30 1
    59   29   66 1
    60   30   31 1
    61   30   58 1
    62   30   59 1
    63   31   32 1
    64   31   60 1
    65   31   61 1
    66   32   33 1
    67   32   62 1
    68   32   63 1
    69   33   64 1
    70   33   65 1
@<TRIPOS>MOLECULE
CHEMBL56306__1
   66    70     0     0     0
SMALL
USER_CHARGES

@<TRIPOS>ATOM
      1 C1         -0.0399    2.2479   -0.8470 C.ar      1 <0>        -0.0694
      2 C2          0.8986    3.1913   -1.2180 C.ar      1 <0>        -0.1424
      3 C3          2.2132    2.8092   -1.4426 C.ar      1 <0>         0.1117
      4 C4          2.5818    1.4800   -1.2940 C.ar      1 <0>        -0.2005
      5 C5          1.6395    0.5405   -0.9228 C.ar      1 <0>        -0.0667
      6 C6          0.3300    0.9239   -0.6996 C.ar      1 <0>        -0.1198
      7 C7         -0.6958   -0.1031   -0.2944 C.3       1 <0>         0.1531
      8 N1         -1.4135   -0.5716   -1.4825 N.pl3     1 <0>        -0.6180
      9 C8         -0.9893   -1.7209   -2.1643 C.ar      1 <0>         0.2114
     10 C9          0.2661   -2.2485   -1.8835 C.ar      1 <0>        -0.1784
     11 C10         0.7034   -3.3815   -2.5392 C.ar      1 <0>        -0.1048
     12 C11        -0.1126   -3.9935   -3.4794 C.ar      1 <0>         0.0562
     13 C12        -1.3627   -3.4669   -3.7605 C.ar      1 <0>        -0.0999
     14 C13        -1.8041   -2.3287   -3.1060 C.ar      1 <0>        -0.1308
     15 C14        -3.1646   -1.7775   -3.4425 C.3       1 <0>        -0.0742
     16 C15        -3.6725   -0.8797   -2.3146 C.3       1 <0>        -0.1287
     17 C16        -2.5935    0.1516   -1.9757 C.3       1 <0>         0.2010
     18 C17        -3.1007    1.0881   -0.9095 C.ar      1 <0>        -0.1045
     19 C18        -3.4389    0.5959    0.3375 C.ar      1 <0>        -0.0857
     20 C19        -3.9045    1.4523    1.3164 C.ar      1 <0>        -0.1436
     21 C20        -4.0321    2.8073    1.0475 C.ar      1 <0>         0.1153
     22 C21        -3.6916    3.2988   -0.2043 C.ar      1 <0>        -0.1453
     23 C22        -3.2216    2.4390   -1.1782 C.ar      1 <0>        -0.0930
     24 O1         -4.4903    3.6517    2.0087 O.3       1 <0>        -0.4969
     25 O2          0.3151   -5.1110   -4.1260 O.3       1 <0>        -0.4996
     26 O3          3.1382    3.7353   -1.8081 O.3       1 <0>        -0.3258
     27 C23         4.4722    3.2701   -2.0226 C.3       1 <0>         0.0282
     28 C24         5.3642    4.4466   -2.4242 C.3       1 <0>         0.0013
     29 N2          5.4581    5.3940   -1.3055 N.4       1 <0>        -0.3910
     30 C25         4.1336    6.0014   -1.0554 C.3       1 <0>        -0.0010
     31 C26         4.4398    7.4646   -0.6491 C.3       1 <0>        -0.1457
     32 C27         5.6390    7.8021   -1.5736 C.3       1 <0>        -0.1420
     33 C28         6.4107    6.4676   -1.6432 C.3       1 <0>        -0.0136
     34 H1         -1.0625    2.5457   -0.6677 H         1 <0>         0.1378
     35 H2          0.6091    4.2254   -1.3334 H         1 <0>         0.1302
     36 H3          3.6045    1.1800   -1.4686 H         1 <0>         0.1264
     37 H4          1.9260   -0.4944   -0.8070 H         1 <0>         0.1299
     38 H5         -0.1969   -0.9456    0.1845 H         1 <0>         0.0840
     39 H6         -1.4027    0.3453    0.4038 H         1 <0>         0.0964
     40 H7          0.9003   -1.7707   -1.1514 H         1 <0>         0.1245
     41 H8          1.6789   -3.7905   -2.3211 H         1 <0>         0.1260
     42 H9         -1.9957   -3.9457   -4.4929 H         1 <0>         0.1285
     43 H10        -3.1000   -1.1971   -4.3629 H         1 <0>         0.0753
     44 H11        -3.8616   -2.6031   -3.5867 H         1 <0>         0.0814
     45 H12        -4.5798   -0.3679   -2.6357 H         1 <0>         0.0831
     46 H13        -3.8849   -1.4851   -1.4335 H         1 <0>         0.0748
     47 H14        -2.3328    0.7165   -2.8707 H         1 <0>         0.0752
     48 H15        -3.3394   -0.4591    0.5463 H         1 <0>         0.1301
     49 H16        -4.1692    1.0672    2.2900 H         1 <0>         0.1329
     50 H17        -3.7901    4.3532   -0.4161 H         1 <0>         0.1321
     51 H18        -2.9522    2.8218   -2.1515 H         1 <0>         0.1290
     52 H19        -3.7949    4.0292    2.5647 H         1 <0>         0.3929
     53 H20         0.0848   -5.9367   -3.6785 H         1 <0>         0.3863
     54 H21         4.8529    2.8224   -1.1046 H         1 <0>         0.0853
     55 H22         4.4737    2.5249   -2.8181 H         1 <0>         0.1085
     56 H23         6.3596    4.0792   -2.6738 H         1 <0>         0.1489
     57 H24         4.9345    4.9491   -3.2908 H         1 <0>         0.1402
     58 H25         3.5282    5.9780   -1.9614 H         1 <0>         0.1373
     59 H26         3.6246    5.4809   -0.2442 H         1 <0>         0.1337
     60 H27         3.5900    8.1141   -0.8591 H         1 <0>         0.1160
     61 H28         4.7265    7.5265    0.4007 H         1 <0>         0.0968
     62 H29         5.2913    8.0983   -2.5633 H         1 <0>         0.0985
     63 H30         6.2583    8.5829   -1.1319 H         1 <0>         0.1125
     64 H31         7.2305    6.4754   -0.9249 H         1 <0>         0.1326
     65 H32         6.7988    6.3157   -2.6504 H         1 <0>         0.1318
     66 H33         5.7704    4.9115   -0.4762 H         1 <0>         0.4243
@<TRIPOS>BOND
     1    1    6 ar
     2    1    2 ar
     3    1   34 1
     4    2    3 ar
     5    2   35 1
     6    3    4 ar
     7    3   26 1
     8    4    5 ar
     9    4   36 1
    10    5    6 ar
    11    5   37 1
    12    6    7 1
    13    7    8 1
    14    7   38 1
    15    7   39 1
    16    8   17 1
    17    8    9 1
    18    9   14 ar
    19    9   10 ar
    20   10   11 ar
    21   10   40 1
    22   11   12 ar
    23   11   41 1
    24   12   13 ar
    25   12   25 1
    26   13   14 ar
    27   13   42 1
    28   14   15 1
    29   15   16 1
    30   15   43 1
    31   15   44 1
    32   16   17 1
    33   16   45 1
    34   16   46 1
    35   17   18 1
    36   17   47 1
    37   18   23 ar
    38   18   19 ar
    39   19   20 ar
    40   19   48 1
    41   20   21 ar
    42   20   49 1
    43   21   22 ar
    44   21   24 1
    45   22   23 ar
    46   22   50 1
    47   23   51 1
    48   24   52 1
    49   25   53 1
    50   26   27 1
    51   27   28 1
    52   27   54 1
    53   27   55 1
    54   28   29 1
    55   28   56 1
    56   28   57 1
    57   29   33 1
    58   29   30 1
    59   29   66 1
    60   30   31 1
    61   30   58 1
    62   30   59 1
    63   31   32 1
    64   31   60 1
    65   31   61 1
    66   32   33 1
    67   32   62 1
    68   32   63 1
    69   33   64 1
    70   33   65 1
@<TRIPOS>MOLECULE
CHEMBL293297
   66    70     0     0     0
SMALL
USER_CHARGES

@<TRIPOS>ATOM
      1 C1         -3.4400   -1.7292   -3.6517 C.ar      1 <0>        -0.0864
      2 C2         -3.4420   -1.2729   -4.9557 C.ar      1 <0>        -0.1450
      3 C3         -2.5537   -0.2803   -5.3433 C.ar      1 <0>         0.1136
      4 C4         -1.6654    0.2516   -4.4199 C.ar      1 <0>        -0.1453
      5 C5         -1.6674   -0.2081   -3.1172 C.ar      1 <0>        -0.0767
      6 C6         -2.5537   -1.1974   -2.7334 C.ar      1 <0>        -0.1063
      7 C7         -2.5540   -1.6967   -1.3115 C.3       1 <0>         0.2011
      8 C8         -3.0464   -0.5884   -0.3717 C.3       1 <0>        -0.1271
      9 C9         -3.1052   -1.1390    1.0530 C.3       1 <0>        -0.0765
     10 C10        -1.7969   -1.7871    1.4226 C.ar      1 <0>        -0.1219
     11 C11        -1.4877   -1.9541    2.7622 C.ar      1 <0>        -0.1031
     12 C12        -0.2931   -2.5490    3.1343 C.ar      1 <0>         0.0656
     13 C13         0.5993   -2.9814    2.1642 C.ar      1 <0>        -0.1074
     14 C14         0.2950   -2.8164    0.8282 C.ar      1 <0>        -0.1601
     15 C15        -0.9029   -2.2170    0.4546 C.ar      1 <0>         0.1994
     16 N1         -1.1865   -2.0521   -0.9085 N.pl3     1 <0>        -0.5833
     17 C16        -0.1835   -2.2227   -1.8694 C.ar      1 <0>         0.1552
     18 C17         0.8913   -1.3443   -1.9154 C.ar      1 <0>        -0.0888
     19 C18         1.8808   -1.5137   -2.8636 C.ar      1 <0>        -0.1256
     20 C19         1.8014   -2.5606   -3.7702 C.ar      1 <0>         0.1069
     21 C20         0.7281   -3.4381   -3.7253 C.ar      1 <0>        -0.1852
     22 C21        -0.2593   -3.2739   -2.7739 C.ar      1 <0>        -0.0828
     23 O1          2.7761   -2.7264   -4.7039 O.3       1 <0>        -0.3274
     24 C22         2.6304   -3.8252   -5.6058 C.3       1 <0>         0.0259
     25 C23         3.8137   -3.8496   -6.5754 C.3       1 <0>        -0.0009
     26 N2          5.0512   -4.1192   -5.8310 N.4       1 <0>        -0.3838
     27 C24         4.9871   -5.4653   -5.2494 C.3       1 <0>        -0.0138
     28 C25         6.2381   -5.7206   -4.4059 C.3       1 <0>        -0.1451
     29 C26         7.4792   -5.6058   -5.2957 C.3       1 <0>        -0.1389
     30 C27         7.4962   -4.2239   -5.9554 C.3       1 <0>        -0.1466
     31 C28         6.1986   -4.0240   -6.7415 C.3       1 <0>        -0.0070
     32 O2          0.0051   -2.7087    4.4516 O.3       1 <0>        -0.4982
     33 O3         -2.5533    0.1699   -6.6256 O.3       1 <0>        -0.5022
     34 H1         -4.1344   -2.4987   -3.3483 H         1 <0>         0.1288
     35 H2         -4.1342   -1.6888   -5.6727 H         1 <0>         0.1310
     36 H3         -0.9726    1.0242   -4.7194 H         1 <0>         0.1274
     37 H4         -0.9760    0.2057   -2.3980 H         1 <0>         0.1248
     38 H5         -3.2022   -2.5689   -1.2267 H         1 <0>         0.0815
     39 H6         -2.3571    0.2551   -0.4090 H         1 <0>         0.0744
     40 H7         -4.0405   -0.2639   -0.6791 H         1 <0>         0.0860
     41 H8         -3.3107   -0.3230    1.7458 H         1 <0>         0.0838
     42 H9         -3.9041   -1.8774    1.1206 H         1 <0>         0.0789
     43 H10        -2.1805   -1.6189    3.5199 H         1 <0>         0.1312
     44 H11         1.5304   -3.4459    2.4538 H         1 <0>         0.1281
     45 H12         0.9886   -3.1527    0.0718 H         1 <0>         0.1219
     46 H13         0.9530   -0.5287   -1.2101 H         1 <0>         0.1351
     47 H14         2.7167   -0.8308   -2.8996 H         1 <0>         0.1347
     48 H15         0.6667   -4.2525   -4.4320 H         1 <0>         0.1276
     49 H16        -1.0924   -3.9601   -2.7360 H         1 <0>         0.1289
     50 H17         2.6038   -4.7574   -5.0414 H         1 <0>         0.0857
     51 H18         1.7028   -3.7139   -6.1673 H         1 <0>         0.1087
     52 H19         3.6587   -4.6321   -7.3182 H         1 <0>         0.1486
     53 H20         3.8935   -2.8845   -7.0756 H         1 <0>         0.1427
     54 H21         4.1017   -5.5465   -4.6189 H         1 <0>         0.1276
     55 H22         4.9317   -6.2039   -6.0490 H         1 <0>         0.1300
     56 H23         6.2944   -4.9826   -3.6057 H         1 <0>         0.0880
     57 H24         6.1895   -6.7212   -3.9764 H         1 <0>         0.1121
     58 H25         8.3758   -5.7309   -4.6886 H         1 <0>         0.0946
     59 H26         7.4484   -6.3769   -6.0655 H         1 <0>         0.0820
     60 H27         7.5786   -3.4549   -5.1874 H         1 <0>         0.0880
     61 H28         8.3468   -4.1547   -6.6335 H         1 <0>         0.1129
     62 H29         6.1173   -4.7934   -7.5093 H         1 <0>         0.1290
     63 H30         6.2075   -3.0412   -7.2127 H         1 <0>         0.1310
     64 H31        -0.3007   -3.5466    4.8252 H         1 <0>         0.3877
     65 H32        -3.1478    0.9168   -6.7804 H         1 <0>         0.3958
     66 H33         5.1525   -3.4400   -5.0918 H         1 <0>         0.4293
@<TRIPOS>BOND
     1    1    6 ar
     2    1    2 ar
     3    1   34 1
     4    2    3 ar
     5    2   35 1
     6    3    4 ar
     7    3   33 1
     8    4    5 ar
     9    4   36 1
    10    5    6 ar
    11    5   37 1
    12    6    7 1
    13    7   16 1
    14    7    8 1
    15    7   38 1
    16    8    9 1
    17    8   39 1
    18    8   40 1
    19    9   10 1
    20    9   41 1
    21    9   42 1
    22   10   15 ar
    23   10   11 ar
    24   11   12 ar
    25   11   43 1
    26   12   13 ar
    27   12   32 1
    28   13   14 ar
    29   13   44 1
    30   14   15 ar
    31   14   45 1
    32   15   16 1
    33   16   17 1
    34   17   22 ar
    35   17   18 ar
    36   18   19 ar
    37   18   46 1
    38   19   20 ar
    39   19   47 1
    40   20   21 ar
    41   20   23 1
    42   21   22 ar
    43   21   48 1
    44   22   49 1
    45   23   24 1
    46   24   25 1
    47   24   50 1
    48   24   51 1
    49   25   26 1
    50   25   52 1
    51   25   53 1
    52   26   31 1
    53   26   27 1
    54   26   66 1
    55   27   28 1
    56   27   54 1
    57   27   55 1
    58   28   29 1
    59   28   56 1
    60   28   57 1
    61   29   30 1
    62   29   58 1
    63   29   59 1
    64   30   31 1
    65   30   60 1
    66   30   61 1
    67   31   62 1
    68   31   63 1
    69   32   64 1
    70   33   65 1
@<TRIPOS>MOLECULE
CHEMBL293297__1
   66    70     0     0     0
SMALL
USER_CHARGES

@<TRIPOS>ATOM
      1 C1          1.3828   -1.4325   -1.4952 C.ar      1 <0>        -0.0850
      2 C2          2.6872   -1.8134   -1.7439 C.ar      1 <0>        -0.1433
      3 C3          3.1399   -3.0534   -1.3172 C.ar      1 <0>         0.1139
      4 C4          2.2808   -3.9080   -0.6416 C.ar      1 <0>        -0.1463
      5 C5          0.9773   -3.5224   -0.3954 C.ar      1 <0>        -0.0775
      6 C6          0.5286   -2.2860   -0.8218 C.ar      1 <0>        -0.1064
      7 C7         -0.8938   -1.8678   -0.5515 C.3       1 <0>         0.2008
      8 C8         -1.8564   -2.7444   -1.3632 C.3       1 <0>        -0.1267
      9 C9         -3.2858   -2.2570   -1.1279 C.3       1 <0>        -0.0770
     10 C10        -3.5711   -2.1515    0.3471 C.ar      1 <0>        -0.1212
     11 C11        -4.8881   -2.1537    0.7758 C.ar      1 <0>        -0.1031
     12 C12        -5.1832   -2.0556    2.1259 C.ar      1 <0>         0.0656
     13 C13        -4.1584   -1.9535    3.0554 C.ar      1 <0>        -0.1079
     14 C14        -2.8448   -1.9514    2.6321 C.ar      1 <0>        -0.1605
     15 C15        -2.5483   -2.0524    1.2772 C.ar      1 <0>         0.1995
     16 N1         -1.2062   -2.0570    0.8717 N.pl3     1 <0>        -0.5838
     17 C16        -0.1813   -2.2392    1.8068 C.ar      1 <0>         0.1568
     18 C17         0.7022   -1.2030    2.0802 C.ar      1 <0>        -0.0827
     19 C18         1.7131   -1.3837    3.0035 C.ar      1 <0>        -0.1252
     20 C19         1.8466   -2.5996    3.6575 C.ar      1 <0>         0.1055
     21 C20         0.9649   -3.6352    3.3848 C.ar      1 <0>        -0.1871
     22 C21        -0.0503   -3.4545    2.4663 C.ar      1 <0>        -0.0879
     23 O1          2.8426   -2.7767    4.5663 O.3       1 <0>        -0.3278
     24 C22         2.9212   -4.0541    5.2021 C.3       1 <0>         0.0258
     25 C23         4.0947   -4.0638    6.1839 C.3       1 <0>        -0.0010
     26 N2          3.8348   -3.1060    7.2669 N.4       1 <0>        -0.3839
     27 C24         2.6676   -3.5480    8.0394 C.3       1 <0>        -0.0137
     28 C25         2.3433   -2.5125    9.1183 C.3       1 <0>        -0.1453
     29 C26         3.5479   -2.3616   10.0518 C.3       1 <0>        -0.1391
     30 C27         4.7766   -1.9727    9.2248 C.3       1 <0>        -0.1467
     31 C28         5.0108   -3.0282    8.1419 C.3       1 <0>        -0.0069
     32 O2         -6.4785   -2.0588    2.5403 O.3       1 <0>        -0.4977
     33 O3          4.4225   -3.4306   -1.5609 O.3       1 <0>        -0.4973
     34 H1          1.0312   -0.4654   -1.8232 H         1 <0>         0.1298
     35 H2          3.3540   -1.1465   -2.2703 H         1 <0>         0.1320
     36 H3          2.6307   -4.8740   -0.3087 H         1 <0>         0.1261
     37 H4          0.3081   -4.1873    0.1305 H         1 <0>         0.1235
     38 H5         -1.0285   -0.8208   -0.8230 H         1 <0>         0.0826
     39 H6         -1.6143   -2.6679   -2.4232 H         1 <0>         0.0866
     40 H7         -1.7663   -3.7816   -1.0402 H         1 <0>         0.0736
     41 H8         -3.4126   -1.2779   -1.5897 H         1 <0>         0.0797
     42 H9         -3.9848   -2.9607   -1.5800 H         1 <0>         0.0837
     43 H10        -5.6883   -2.2327    0.0548 H         1 <0>         0.1314
     44 H11        -4.3880   -1.8755    4.1078 H         1 <0>         0.1277
     45 H12        -2.0458   -1.8717    3.3544 H         1 <0>         0.1216
     46 H13         0.5989   -0.2565    1.5706 H         1 <0>         0.1342
     47 H14         2.4002   -0.5780    3.2163 H         1 <0>         0.1337
     48 H15         1.0701   -4.5819    3.8940 H         1 <0>         0.1284
     49 H16        -0.7396   -4.2593    2.2576 H         1 <0>         0.1302
     50 H17         1.9944   -4.2491    5.7416 H         1 <0>         0.0860
     51 H18         3.0721   -4.8266    4.4480 H         1 <0>         0.1084
     52 H19         4.2097   -5.0635    6.6027 H         1 <0>         0.1486
     53 H20         5.0084   -3.7817    5.6608 H         1 <0>         0.1423
     54 H21         1.8120   -3.6580    7.3732 H         1 <0>         0.1276
     55 H22         2.8859   -4.5065    8.5103 H         1 <0>         0.1301
     56 H23         2.1246   -1.5536    8.6485 H         1 <0>         0.0880
     57 H24         1.4775   -2.8434    9.6919 H         1 <0>         0.1123
     58 H25         3.3433   -1.5844   10.7882 H         1 <0>         0.0948
     59 H26         3.7354   -3.3072   10.5607 H         1 <0>         0.0821
     60 H27         4.6084   -1.0026    8.7571 H         1 <0>         0.0880
     61 H28         5.6502   -1.9178    9.8744 H         1 <0>         0.1131
     62 H29         5.1791   -3.9978    8.6106 H         1 <0>         0.1291
     63 H30         5.8851   -2.7545    7.5513 H         1 <0>         0.1309
     64 H31        -6.8287   -2.9401    2.7295 H         1 <0>         0.3871
     65 H32         5.0445   -3.1837   -0.8629 H         1 <0>         0.3903
     66 H33         3.6496   -2.1959    6.8725 H         1 <0>         0.4293
@<TRIPOS>BOND
     1    1    6 ar
     2    1    2 ar
     3    1   34 1
     4    2    3 ar
     5    2   35 1
     6    3    4 ar
     7    3   33 1
     8    4    5 ar
     9    4   36 1
    10    5    6 ar
    11    5   37 1
    12    6    7 1
    13    7   16 1
    14    7    8 1
    15    7   38 1
    16    8    9 1
    17    8   39 1
    18    8   40 1
    19    9   10 1
    20    9   41 1
    21    9   42 1
    22   10   15 ar
    23   10   11 ar
    24   11   12 ar
    25   11   43 1
    26   12   13 ar
    27   12   32 1
    28   13   14 ar
    29   13   44 1
    30   14   15 ar
    31   14   45 1
    32   15   16 1
    33   16   17 1
    34   17   22 ar
    35   17   18 ar
    36   18   19 ar
    37   18   46 1
    38   19   20 ar
    39   19   47 1
    40   20   21 ar
    41   20   23 1
    42   21   22 ar
    43   21   48 1
    44   22   49 1
    45   23   24 1
    46   24   25 1
    47   24   50 1
    48   24   51 1
    49   25   26 1
    50   25   52 1
    51   25   53 1
    52   26   31 1
    53   26   27 1
    54   26   66 1
    55   27   28 1
    56   27   54 1
    57   27   55 1
    58   28   29 1
    59   28   56 1
    60   28   57 1
    61   29   30 1
    62   29   58 1
    63   29   59 1
    64   30   31 1
    65   30   60 1
    66   30   61 1
    67   31   62 1
    68   31   63 1
    69   32   64 1
    70   33   65 1
@<TRIPOS>MOLECULE
CHEMBL56390
   63    67     0     0     0
SMALL
USER_CHARGES

@<TRIPOS>ATOM
      1 C1          0.4111    1.0255    0.3168 C.ar      1 <0>        -0.0864
      2 C2          1.6836    1.5573    0.3961 C.ar      1 <0>        -0.1450
      3 C3          2.7869    0.7162    0.3958 C.ar      1 <0>         0.1136
      4 C4          2.6091   -0.6573    0.3160 C.ar      1 <0>        -0.1454
      5 C5          1.3345   -1.1842    0.2369 C.ar      1 <0>        -0.0767
      6 C6          0.2365   -0.3438    0.2373 C.ar      1 <0>        -0.1064
      7 C7         -1.1528   -0.9212    0.1514 C.3       1 <0>         0.2012
      8 C8         -1.4734   -1.6969    1.4357 C.3       1 <0>        -0.1271
      9 C9         -2.9100   -2.2128    1.3554 C.3       1 <0>        -0.0765
     10 C10        -3.1335   -2.9522    0.0626 C.ar      1 <0>        -0.1219
     11 C11        -4.1875   -3.8467   -0.0231 C.ar      1 <0>        -0.1032
     12 C12        -4.4208   -4.5404   -1.1994 C.ar      1 <0>         0.0657
     13 C13        -3.5982   -4.3405   -2.2986 C.ar      1 <0>        -0.1074
     14 C14        -2.5467   -3.4504   -2.2169 C.ar      1 <0>        -0.1601
     15 C15        -2.3109   -2.7558   -1.0355 C.ar      1 <0>         0.1993
     16 N1         -1.2315   -1.8633   -0.9733 N.pl3     1 <0>        -0.5833
     17 C16        -0.2451   -1.8699   -1.9659 C.ar      1 <0>         0.1552
     18 C17         0.5856   -2.9733   -2.1127 C.ar      1 <0>        -0.0888
     19 C18         1.5584   -2.9791   -3.0928 C.ar      1 <0>        -0.1258
     20 C19         1.7064   -1.8833   -3.9303 C.ar      1 <0>         0.1067
     21 C20         0.8775   -0.7807   -3.7842 C.ar      1 <0>        -0.1850
     22 C21        -0.1000   -0.7755   -2.8087 C.ar      1 <0>        -0.0828
     23 O1          2.6650   -1.8897   -4.8949 O.3       1 <0>        -0.3279
     24 C22         2.7613   -0.7281   -5.7216 C.3       1 <0>         0.0276
     25 C23         3.8873   -0.9187   -6.7398 C.3       1 <0>         0.0039
     26 N2          3.5419   -2.0172   -7.6519 N.4       1 <0>        -0.3955
     27 C24         2.4037   -1.6228   -8.5209 C.3       1 <0>        -0.0105
     28 C25         2.5337   -2.5805   -9.7319 C.3       1 <0>        -0.1446
     29 C26         4.0637   -2.6850   -9.9272 C.3       1 <0>        -0.1450
     30 C27         4.6704   -2.2944   -8.5668 C.3       1 <0>        -0.0088
     31 O2         -5.4565   -5.4183   -1.2766 O.3       1 <0>        -0.4982
     32 O3          4.0398    1.2370    0.4732 O.3       1 <0>        -0.5023
     33 H1         -0.4483    1.6796    0.3215 H         1 <0>         0.1288
     34 H2          1.8195    2.6270    0.4578 H         1 <0>         0.1310
     35 H3          3.4664   -1.3141    0.3152 H         1 <0>         0.1274
     36 H4          1.1955   -2.2534    0.1747 H         1 <0>         0.1248
     37 H5         -1.8778   -0.1193    0.0127 H         1 <0>         0.0816
     38 H6         -0.7881   -2.5387    1.5347 H         1 <0>         0.0744
     39 H7         -1.3702   -1.0364    2.2967 H         1 <0>         0.0860
     40 H8         -3.0978   -2.8859    2.1919 H         1 <0>         0.0838
     41 H9         -3.5986   -1.3697    1.4113 H         1 <0>         0.0789
     42 H10        -4.8299   -4.0043    0.8306 H         1 <0>         0.1312
     43 H11        -3.7801   -4.8805   -3.2160 H         1 <0>         0.1281
     44 H12        -1.9056   -3.2934   -3.0717 H         1 <0>         0.1219
     45 H13         0.4711   -3.8263   -1.4602 H         1 <0>         0.1351
     46 H14         2.2045   -3.8370   -3.2071 H         1 <0>         0.1347
     47 H15         0.9939    0.0723   -4.4363 H         1 <0>         0.1276
     48 H16        -0.7484    0.0811   -2.6982 H         1 <0>         0.1289
     49 H17         1.8182   -0.5767   -6.2469 H         1 <0>         0.0846
     50 H18         2.9756    0.1423   -5.1016 H         1 <0>         0.1077
     51 H19         4.0197   -0.0000   -7.3113 H         1 <0>         0.1482
     52 H20         4.8132   -1.1581   -6.2170 H         1 <0>         0.1413
     53 H21         1.4552   -1.7790   -8.0070 H         1 <0>         0.1333
     54 H22         2.5039   -0.5850   -8.8386 H         1 <0>         0.1347
     55 H23         2.1069   -3.5562   -9.4996 H         1 <0>         0.0984
     56 H24         2.0605   -2.1517  -10.6152 H         1 <0>         0.1172
     57 H25         4.3430   -3.7062  -10.1868 H         1 <0>         0.1056
     58 H26         4.3944   -1.9930  -10.7017 H         1 <0>         0.1044
     59 H27         5.2865   -1.4021   -8.6775 H         1 <0>         0.1313
     60 H28         5.2704   -3.1172   -8.1778 H         1 <0>         0.1330
     61 H29        -6.2861   -5.0225   -1.5770 H         1 <0>         0.3877
     62 H30         4.3672    1.3413    1.3771 H         1 <0>         0.3958
     63 H31         3.3085   -2.8462   -7.1262 H         1 <0>         0.4336
@<TRIPOS>BOND
     1    1    6 ar
     2    1    2 ar
     3    1   33 1
     4    2    3 ar
     5    2   34 1
     6    3    4 ar
     7    3   32 1
     8    4    5 ar
     9    4   35 1
    10    5    6 ar
    11    5   36 1
    12    6    7 1
    13    7   16 1
    14    7    8 1
    15    7   37 1
    16    8    9 1
    17    8   38 1
    18    8   39 1
    19    9   10 1
    20    9   40 1
    21    9   41 1
    22   10   15 ar
    23   10   11 ar
    24   11   12 ar
    25   11   42 1
    26   12   13 ar
    27   12   31 1
    28   13   14 ar
    29   13   43 1
    30   14   15 ar
    31   14   44 1
    32   15   16 1
    33   16   17 1
    34   17   22 ar
    35   17   18 ar
    36   18   19 ar
    37   18   45 1
    38   19   20 ar
    39   19   46 1
    40   20   21 ar
    41   20   23 1
    42   21   22 ar
    43   21   47 1
    44   22   48 1
    45   23   24 1
    46   24   25 1
    47   24   49 1
    48   24   50 1
    49   25   26 1
    50   25   51 1
    51   25   52 1
    52   26   30 1
    53   26   27 1
    54   26   63 1
    55   27   28 1
    56   27   53 1
    57   27   54 1
    58   28   29 1
    59   28   55 1
    60   28   56 1
    61   29   30 1
    62   29   57 1
    63   29   58 1
    64   30   59 1
    65   30   60 1
    66   31   61 1
    67   32   62 1
@<TRIPOS>MOLECULE
CHEMBL56390__1
   63    67     0     0     0
SMALL
USER_CHARGES

@<TRIPOS>ATOM
      1 C1          0.0598    1.3096    0.2711 C.ar      1 <0>        -0.0850
      2 C2          1.2568    1.9990    0.2475 C.ar      1 <0>        -0.1433
      3 C3          2.4298    1.3385   -0.0880 C.ar      1 <0>         0.1139
      4 C4          2.3974   -0.0131   -0.3991 C.ar      1 <0>        -0.1464
      5 C5          1.1979   -0.6979   -0.3741 C.ar      1 <0>        -0.0774
      6 C6          0.0303   -0.0374   -0.0394 C.ar      1 <0>        -0.1063
      7 C7         -1.2768   -0.7870   -0.0125 C.3       1 <0>         0.2008
      8 C8         -1.6624   -1.2106   -1.4359 C.3       1 <0>        -0.1266
      9 C9         -3.0228   -1.9059   -1.3927 C.3       1 <0>        -0.0770
     10 C10        -3.0251   -2.9967   -0.3543 C.ar      1 <0>        -0.1212
     11 C11        -3.9693   -4.0058   -0.4458 C.ar      1 <0>        -0.1031
     12 C12        -3.9988   -5.0221    0.4953 C.ar      1 <0>         0.0656
     13 C13        -3.0812   -5.0322    1.5358 C.ar      1 <0>        -0.1079
     14 C14        -2.1385   -4.0287    1.6301 C.ar      1 <0>        -0.1605
     15 C15        -2.1072   -3.0099    0.6841 C.ar      1 <0>         0.1995
     16 N1         -1.1348   -2.0059    0.7955 N.pl3     1 <0>        -0.5838
     17 C16        -0.0469   -2.1625    1.6616 C.ar      1 <0>         0.1568
     18 C17         0.0787   -1.3417    2.7750 C.ar      1 <0>        -0.0828
     19 C18         1.1524   -1.4973    3.6294 C.ar      1 <0>        -0.1253
     20 C19         2.1055   -2.4725    3.3757 C.ar      1 <0>         0.1053
     21 C20         1.9813   -3.2924    2.2637 C.ar      1 <0>        -0.1868
     22 C21         0.9050   -3.1425    1.4116 C.ar      1 <0>        -0.0880
     23 O1          3.1628   -2.6247    4.2174 O.3       1 <0>        -0.3283
     24 C22         4.1062   -3.6486    3.8955 C.3       1 <0>         0.0275
     25 C23         5.2163   -3.6685    4.9482 C.3       1 <0>         0.0038
     26 N2          4.6516   -4.0551    6.2480 N.4       1 <0>        -0.3956
     27 C24         4.2280   -5.4784    6.2195 C.3       1 <0>        -0.0105
     28 C25         4.2071   -5.8722    7.7178 C.3       1 <0>        -0.1447
     29 C26         5.4254   -5.1131    8.2918 C.3       1 <0>        -0.1451
     30 C27         5.6861   -3.9633    7.3011 C.3       1 <0>        -0.0086
     31 O2         -4.9283   -6.0102    0.3994 O.3       1 <0>        -0.4976
     32 O3          3.6084    2.0145   -0.1123 O.3       1 <0>        -0.4973
     33 H1         -0.8529    1.8223    0.5366 H         1 <0>         0.1298
     34 H2          1.2793    3.0512    0.4897 H         1 <0>         0.1320
     35 H3          3.3092   -0.5294   -0.6609 H         1 <0>         0.1261
     36 H4          1.1722   -1.7501   -0.6161 H         1 <0>         0.1235
     37 H5         -2.0570   -0.1534    0.4092 H         1 <0>         0.0826
     38 H6         -1.7225   -0.3298   -2.0753 H         1 <0>         0.0866
     39 H7         -0.9130   -1.8982   -1.8279 H         1 <0>         0.0736
     40 H8         -3.7930   -1.1746   -1.1478 H         1 <0>         0.0797
     41 H9         -3.2365   -2.3391   -2.3699 H         1 <0>         0.0837
     42 H10        -4.6853   -4.0007   -1.2544 H         1 <0>         0.1315
     43 H11        -3.1048   -5.8234    2.2705 H         1 <0>         0.1278
     44 H12        -1.4236   -4.0349    2.4396 H         1 <0>         0.1215
     45 H13        -0.6630   -0.5818    2.9723 H         1 <0>         0.1342
     46 H14         1.2501   -0.8591    4.4952 H         1 <0>         0.1337
     47 H15         2.7243   -4.0510    2.0666 H         1 <0>         0.1284
     48 H16         0.8058   -3.7841    0.5485 H         1 <0>         0.1302
     49 H17         3.6025   -4.6150    3.8803 H         1 <0>         0.0849
     50 H18         4.5388   -3.4489    2.9151 H         1 <0>         0.1074
     51 H19         5.9813   -4.3878    4.6560 H         1 <0>         0.1482
     52 H20         5.6612   -2.6764    5.0259 H         1 <0>         0.1409
     53 H21         3.2342   -5.5753    5.7823 H         1 <0>         0.1334
     54 H22         4.9506   -6.0840    5.6726 H         1 <0>         0.1348
     55 H23         3.2849   -5.5363    8.1921 H         1 <0>         0.0985
     56 H24         4.3328   -6.9485    7.8355 H         1 <0>         0.1174
     57 H25         5.1925   -4.7158    9.2797 H         1 <0>         0.1057
     58 H26         6.2920   -5.7722    8.3429 H         1 <0>         0.1045
     59 H27         6.6766   -4.0715    6.8590 H         1 <0>         0.1314
     60 H28         5.6086   -3.0054    7.8153 H         1 <0>         0.1329
     61 H29        -4.6409   -6.7710   -0.1237 H         1 <0>         0.3871
     62 H30         4.0810    2.0116    0.7313 H         1 <0>         0.3903
     63 H31         3.8680   -3.4624    6.4775 H         1 <0>         0.4336
@<TRIPOS>BOND
     1    1    6 ar
     2    1    2 ar
     3    1   33 1
     4    2    3 ar
     5    2   34 1
     6    3    4 ar
     7    3   32 1
     8    4    5 ar
     9    4   35 1
    10    5    6 ar
    11    5   36 1
    12    6    7 1
    13    7   16 1
    14    7    8 1
    15    7   37 1
    16    8    9 1
    17    8   38 1
    18    8   39 1
    19    9   10 1
    20    9   40 1
    21    9   41 1
    22   10   15 ar
    23   10   11 ar
    24   11   12 ar
    25   11   42 1
    26   12   13 ar
    27   12   31 1
    28   13   14 ar
    29   13   43 1
    30   14   15 ar
    31   14   44 1
    32   15   16 1
    33   16   17 1
    34   17   22 ar
    35   17   18 ar
    36   18   19 ar
    37   18   45 1
    38   19   20 ar
    39   19   46 1
    40   20   21 ar
    41   20   23 1
    42   21   22 ar
    43   21   47 1
    44   22   48 1
    45   23   24 1
    46   24   25 1
    47   24   49 1
    48   24   50 1
    49   25   26 1
    50   25   51 1
    51   25   52 1
    52   26   30 1
    53   26   27 1
    54   26   63 1
    55   27   28 1
    56   27   53 1
    57   27   54 1
    58   28   29 1
    59   28   55 1
    60   28   56 1
    61   29   30 1
    62   29   57 1
    63   29   58 1
    64   30   59 1
    65   30   60 1
    66   31   61 1
    67   32   62 1
@<TRIPOS>MOLECULE
CHEMBL211666
   39    43     0     0     0
SMALL
USER_CHARGES

@<TRIPOS>ATOM
      1 C1          0.2332    1.4527    0.2415 C.ar      1 <0>        -0.0206
      2 C2          1.4069    2.1307    0.3524 C.ar      1 <0>        -0.1498
      3 C3          2.6163    1.4376    0.4165 C.ar      1 <0>         0.1585
      4 C4          2.6148    0.0277    0.3986 C.ar      1 <0>        -0.1789
      5 C5          4.0129   -0.3842    0.5017 C.2       1 <0>         0.0877
      6 N1          4.7399    0.6941    0.5637 N.2       1 <0>        -0.2469
      7 N2          3.9241    1.8285    0.5106 N.pl3     1 <0>        -0.5041
      8 H1          4.2358    2.7467    0.5363 H         1 <0>         0.4439
      9 C6          1.4098   -0.6669    0.2908 C.ar      1 <0>         0.0302
     10 C7          0.2146    0.0456    0.1755 C.ar      1 <0>        -0.1467
     11 C8         -0.8867   -0.8941   -0.0545 C.2       1 <0>         0.0727
     12 C9         -2.0900   -0.6889   -0.6301 C.2       1 <0>        -0.2123
     13 C10        -2.9483   -1.7937   -0.8253 C.2       1 <0>         0.3955
     14 O1         -4.0361   -1.6216   -1.3375 O.2       1 <0>        -0.4451
     15 C11        -2.5372   -3.1803   -0.4100 C.3       1 <0>        -0.1585
     16 C12        -1.0110   -3.3200   -0.4318 C.3       1 <0>        -0.1069
     17 C13        -0.4159   -2.2403    0.4756 C.3       1 <0>        -0.0320
     18 C14         1.1094   -2.1520    0.2978 C.3       1 <0>        -0.0805
     19 C15        -0.8227   -2.4476    1.9359 C.3       1 <0>        -0.0685
     20 C16        -0.3604   -3.8292    2.4029 C.3       1 <0>        -0.1527
     21 C17        -1.4393   -4.8355    2.8082 C.3       1 <0>        -0.1794
     22 C18        -0.5632   -4.1807    3.8781 C.3       1 <0>        -0.1787
     23 Br1        -2.6179    1.0464   -1.1649 Br        1 <0>        -0.0265
     24 H2         -0.6972    2.0001    0.2081 H         1 <0>         0.1394
     25 H3          1.4030    3.2100    0.3907 H         1 <0>         0.1351
     26 H4          4.3777   -1.4005    0.5229 H         1 <0>         0.2009
     27 H5         -2.9016   -3.3761    0.5984 H         1 <0>         0.1064
     28 H6         -2.9742   -3.9054   -1.0965 H         1 <0>         0.1032
     29 H7         -0.7272   -4.3061   -0.0643 H         1 <0>         0.0931
     30 H8         -0.6445   -3.1873   -1.4497 H         1 <0>         0.0774
     31 H9          1.4081   -2.6045   -0.6478 H         1 <0>         0.1015
     32 H10         1.6181   -2.6385    1.1301 H         1 <0>         0.1008
     33 H11        -0.3576   -1.6804    2.5549 H         1 <0>         0.0778
     34 H12        -1.9068   -2.3780    2.0244 H         1 <0>         0.0745
     35 H13         0.5313   -4.2177    1.9109 H         1 <0>         0.1102
     36 H14        -2.4784   -4.5132    2.7422 H         1 <0>         0.0942
     37 H15        -1.2575   -5.8864    2.5828 H         1 <0>         0.0956
     38 H16         0.1949   -4.8008    4.3566 H         1 <0>         0.0955
     39 H17        -1.0259   -3.4276    4.5159 H         1 <0>         0.0941
@<TRIPOS>BOND
     1    1   10 ar
     2    1    2 ar
     3    1   24 1
     4    2    3 ar
     5    2   25 1
     6    3    7 1
     7    3    4 ar
     8    4    5 1
     9    4    9 ar
    10    5    6 2
    11    5   26 1
    12    6    7 1
    13    7    8 1
    14    9   18 1
    15    9   10 ar
    16   10   11 1
    17   11   17 1
    18   11   12 2
    19   12   13 1
    20   12   23 1
    21   13   14 2
    22   13   15 1
    23   15   16 1
    24   15   27 1
    25   15   28 1
    26   16   17 1
    27   16   29 1
    28   16   30 1
    29   17   18 1
    30   17   19 1
    31   18   31 1
    32   18   32 1
    33   19   20 1
    34   19   33 1
    35   19   34 1
    36   20   22 1
    37   20   21 1
    38   20   35 1
    39   21   22 1
    40   21   36 1
    41   21   37 1
    42   22   38 1
    43   22   39 1
@<TRIPOS>MOLECULE
CHEMBL211666__1
   39    43     0     0     0
SMALL
USER_CHARGES

@<TRIPOS>ATOM
      1 C1          0.2416    1.4593    0.2423 C.ar      1 <0>        -0.0382
      2 C2          1.3929    2.1530    0.3528 C.ar      1 <0>        -0.1096
      3 C3          2.6291    1.4685    0.4115 C.ar      1 <0>         0.1274
      4 C4          2.6266   -0.0031    0.3784 C.ar      1 <0>        -0.2065
      5 C5          3.9539   -0.3969    0.4519 C.2       1 <0>         0.1062
      6 N1          4.7057    0.7084    0.5221 N.pl3     1 <0>        -0.4200
      7 N2          3.8901    1.8450    0.4963 N.2       1 <0>        -0.3024
      8 H1          5.6738    0.7197    0.5823 H         1 <0>         0.4479
      9 C6          1.4003   -0.6836    0.2861 C.ar      1 <0>         0.0351
     10 C7          0.2205    0.0432    0.1764 C.ar      1 <0>        -0.1420
     11 C8         -0.8932   -0.8820   -0.0490 C.2       1 <0>         0.0736
     12 C9         -2.0909   -0.6633   -0.6354 C.2       1 <0>        -0.2172
     13 C10        -2.9649   -1.7549   -0.8219 C.2       1 <0>         0.3954
     14 O1         -4.0465   -1.5716   -1.3439 O.2       1 <0>        -0.4471
     15 C11        -2.5802   -3.1422   -0.3848 C.3       1 <0>        -0.1584
     16 C12        -1.0568   -3.3095   -0.3972 C.3       1 <0>        -0.1066
     17 C13        -0.4458   -2.2289    0.4986 C.3       1 <0>        -0.0320
     18 C14         1.0808   -2.1647    0.3192 C.3       1 <0>        -0.0817
     19 C15        -0.8571   -2.4122    1.9608 C.3       1 <0>        -0.0684
     20 C16        -0.4145   -3.7941    2.4457 C.3       1 <0>        -0.1523
     21 C17        -1.5076   -4.7803    2.8621 C.3       1 <0>        -0.1793
     22 C18        -0.6239   -4.1243    3.9249 C.3       1 <0>        -0.1789
     23 Br1        -2.5863    1.0737   -1.1951 Br        1 <0>        -0.0259
     24 H2         -0.6933    1.9989    0.2075 H         1 <0>         0.1356
     25 H3          1.3708    3.2319    0.3961 H         1 <0>         0.1363
     26 H4          4.3166   -1.4142    0.4530 H         1 <0>         0.1934
     27 H5         -2.9526   -3.3169    0.6246 H         1 <0>         0.1057
     28 H6         -3.0271   -3.8693   -1.0628 H         1 <0>         0.1024
     29 H7         -0.7926   -4.2956   -0.0154 H         1 <0>         0.0918
     30 H8         -0.6834   -3.1971   -1.4151 H         1 <0>         0.0768
     31 H9          1.3737   -2.6377   -0.6181 H         1 <0>         0.0995
     32 H10         1.5825   -2.6430    1.1604 H         1 <0>         0.0983
     33 H11        -0.3822   -1.6438    2.5709 H         1 <0>         0.0782
     34 H12        -1.9403   -2.3266    2.0470 H         1 <0>         0.0749
     35 H13         0.4724   -4.2010    1.9599 H         1 <0>         0.1091
     36 H14        -2.5422   -4.4446    2.7905 H         1 <0>         0.0945
     37 H15        -1.3402   -5.8363    2.6500 H         1 <0>         0.0953
     38 H16         0.1249   -4.7488    4.4121 H         1 <0>         0.0949
     39 H17        -1.0771   -3.3570    4.5526 H         1 <0>         0.0944
@<TRIPOS>BOND
     1    1   10 ar
     2    1    2 ar
     3    1   24 1
     4    2    3 ar
     5    2   25 1
     6    3    4 ar
     7    3    7 2
     8    4    9 ar
     9    4    5 2
    10    5   26 1
    11    5    6 1
    12    6    8 1
    13    6    7 1
    14    9   18 1
    15    9   10 ar
    16   10   11 1
    17   11   17 1
    18   11   12 2
    19   12   13 1
    20   12   23 1
    21   13   14 2
    22   13   15 1
    23   15   16 1
    24   15   27 1
    25   15   28 1
    26   16   17 1
    27   16   29 1
    28   16   30 1
    29   17   18 1
    30   17   19 1
    31   18   31 1
    32   18   32 1
    33   19   20 1
    34   19   33 1
    35   19   34 1
    36   20   22 1
    37   20   21 1
    38   20   35 1
    39   21   22 1
    40   21   36 1
    41   21   37 1
    42   22   38 1
    43   22   39 1
@<TRIPOS>MOLECULE
CHEMBL356668
   80    84     0     0     0
SMALL
USER_CHARGES

@<TRIPOS>ATOM
      1 C1         -0.0178    1.4608    0.0101 C.3       1 <0>         0.0582
      2 N1          0.0021   -0.0041    0.0020 N.pl3     1 <0>        -0.5553
      3 C2          0.0241   -0.7433    1.2666 C.3       1 <0>         0.1168
      4 C3         -1.4105   -1.0203    1.7205 C.3       1 <0>        -0.1307
      5 C4         -1.3875   -1.7923    3.0413 C.3       1 <0>        -0.0760
      6 C5         -2.8005   -2.0651    3.4884 C.ar      1 <0>        -0.0853
      7 C6         -3.4587   -1.1539    4.2931 C.ar      1 <0>        -0.1035
      8 C7         -4.7547   -1.4036    4.7034 C.ar      1 <0>        -0.1069
      9 C8         -5.3933   -2.5657    4.3087 C.ar      1 <0>        -0.0353
     10 C9         -4.7340   -3.4773    3.5034 C.ar      1 <0>        -0.1080
     11 C10        -3.4400   -3.2238    3.0890 C.ar      1 <0>        -0.1033
     12 Cl1        -7.0209   -2.8802    4.8242 Cl        1 <0>        -0.0622
     13 C11         0.0000   -0.6876   -1.1969 C.ar      1 <0>         0.6836
     14 N2         -0.0145   -0.0167   -2.3446 N.ar      1 <0>        -0.6389
     15 C12        -0.0165   -0.6751   -3.4993 C.ar      1 <0>         0.6935
     16 N3         -0.0039   -2.0045   -3.5066 N.ar      1 <0>        -0.6202
     17 C13         0.0110   -2.6753   -2.3592 C.ar      1 <0>         0.6736
     18 N4          0.0180   -2.0167   -1.2042 N.ar      1 <0>        -0.6153
     19 N5          0.0236   -4.0553   -2.3667 N.pl3     1 <0>        -0.5248
     20 C14         0.0341   -4.8170   -1.1086 C.3       1 <0>         0.1160
     21 C15        -1.0888   -5.8585   -1.1607 C.3       1 <0>         0.0386
     22 N6         -0.9453   -6.6680   -2.3781 N.3       1 <0>        -0.5328
     23 C16        -1.0957   -5.8453   -3.5858 C.3       1 <0>         0.0341
     24 C17         0.0206   -4.8033   -3.6331 C.3       1 <0>         0.1159
     25 C18        -1.8971   -7.7870   -2.3815 C.3       1 <0>         0.0969
     26 C19        -1.5617   -8.7283   -3.5095 C.ar      1 <0>        -0.0879
     27 C20        -2.1257   -8.5403   -4.7575 C.ar      1 <0>        -0.1179
     28 C21        -1.8181   -9.4038   -5.7922 C.ar      1 <0>        -0.1191
     29 C22        -0.9461  -10.4550   -5.5790 C.ar      1 <0>        -0.1141
     30 C23        -0.3814  -10.6425   -4.3313 C.ar      1 <0>        -0.1179
     31 C24        -0.6857   -9.7765   -3.2977 C.ar      1 <0>        -0.0960
     32 N7         -0.0320    0.0214   -4.6907 N.pl3     1 <0>        -0.6643
     33 C25        -0.0463    1.4863   -4.6827 C.3       1 <0>         0.0946
     34 C26        -0.0619    2.0041   -6.1224 C.3       1 <0>        -0.0847
     35 C27        -0.0766    3.5110   -6.1141 C.ar      1 <0>        -0.1112
     36 C28        -1.2813    4.1893   -6.0959 C.ar      1 <0>        -0.0937
     37 C29        -1.2975    5.5706   -6.0887 C.ar      1 <0>        -0.1429
     38 C30        -0.1036    6.2772   -6.0994 C.ar      1 <0>         0.1187
     39 C31         1.1038    5.5943   -6.1173 C.ar      1 <0>        -0.1427
     40 C32         1.1146    4.2128   -6.1191 C.ar      1 <0>        -0.0934
     41 O1         -0.1169    7.6362   -6.0929 O.3       1 <0>        -0.4971
     42 H1          1.0048    1.8381    0.0023 H         1 <0>         0.0891
     43 H2         -0.5450    1.8219   -0.8730 H         1 <0>         0.0720
     44 H3         -0.5280    1.8123    0.9069 H         1 <0>         0.1124
     45 H4          0.5496   -1.6879    1.1262 H         1 <0>         0.1072
     46 H5          0.5371   -0.1514    2.0246 H         1 <0>         0.1039
     47 H6         -1.9359   -0.0757    1.8610 H         1 <0>         0.0715
     48 H7         -1.9235   -1.6122    0.9626 H         1 <0>         0.0725
     49 H8         -0.8620   -2.7369    2.9008 H         1 <0>         0.0816
     50 H9         -0.8745   -1.2004    3.7993 H         1 <0>         0.0812
     51 H10        -2.9600   -0.2469    4.6014 H         1 <0>         0.1316
     52 H11        -5.2687   -0.6918    5.3324 H         1 <0>         0.1356
     53 H12        -5.2319   -4.3848    3.1952 H         1 <0>         0.1343
     54 H13        -2.9270   -3.9331    2.4564 H         1 <0>         0.1296
     55 H14         0.9944   -5.3194   -0.9927 H         1 <0>         0.0973
     56 H15        -0.1322   -4.1410   -0.2699 H         1 <0>         0.1108
     57 H16        -1.0266   -6.5045   -0.2850 H         1 <0>         0.1024
     58 H17        -2.0541   -5.3524   -1.1721 H         1 <0>         0.0439
     59 H18        -1.0386   -6.4818   -4.4689 H         1 <0>         0.1065
     60 H19        -2.0609   -5.3394   -3.5634 H         1 <0>         0.0423
     61 H20        -0.1545   -4.1183   -4.4626 H         1 <0>         0.1106
     62 H21         0.9797   -5.3044   -3.7646 H         1 <0>         0.0966
     63 H22        -1.8346   -8.3199   -1.4327 H         1 <0>         0.0902
     64 H23        -2.9083   -7.4034   -2.5168 H         1 <0>         0.0473
     65 H24        -2.8069   -7.7190   -4.9240 H         1 <0>         0.1166
     66 H25        -2.2592   -9.2573   -6.7670 H         1 <0>         0.1230
     67 H26        -0.7063  -11.1301   -6.3873 H         1 <0>         0.1238
     68 H27         0.2996  -11.4641   -4.1647 H         1 <0>         0.1245
     69 H28        -0.2417   -9.9208   -2.3239 H         1 <0>         0.1231
     70 H29        -0.0334   -0.4590   -5.5334 H         1 <0>         0.4439
     71 H30        -0.9360    1.8381   -4.1604 H         1 <0>         0.0863
     72 H31         0.8438    1.8556   -4.1734 H         1 <0>         0.0873
     73 H32         0.8278    1.6523   -6.6447 H         1 <0>         0.0934
     74 H33        -0.9520    1.6348   -6.6317 H         1 <0>         0.0930
     75 H34        -2.2104    3.6388   -6.0876 H         1 <0>         0.1284
     76 H35        -2.2387    6.1000   -6.0752 H         1 <0>         0.1339
     77 H36         2.0345    6.1421   -6.1256 H         1 <0>         0.1341
     78 H37         2.0544    3.6807   -6.1285 H         1 <0>         0.1288
     79 H38        -0.1104    8.0253   -5.2077 H         1 <0>         0.3964
     80 H39        -0.0240    0.9532   -2.3393 H         1 <0>         0.4338
@<TRIPOS>BOND
     1    1    2 1
     2    1   42 1
     3    1   43 1
     4    1   44 1
     5    2    3 1
     6    2   13 1
     7    3    4 1
     8    3   45 1
     9    3   46 1
    10    4    5 1
    11    4   47 1
    12    4   48 1
    13    5    6 1
    14    5   49 1
    15    5   50 1
    16    6   11 ar
    17    6    7 ar
    18    7    8 ar
    19    7   51 1
    20    8    9 ar
    21    8   52 1
    22    9   10 ar
    23    9   12 1
    24   10   11 ar
    25   10   53 1
    26   11   54 1
    27   13   18 ar
    28   13   14 ar
    29   14   15 ar
    30   14   80 1
    31   15   16 ar
    32   15   32 1
    33   16   17 ar
    34   17   18 ar
    35   17   19 1
    36   19   24 1
    37   19   20 1
    38   20   21 1
    39   20   55 1
    40   20   56 1
    41   21   22 1
    42   21   57 1
    43   21   58 1
    44   22   23 1
    45   22   25 1
    46   23   24 1
    47   23   59 1
    48   23   60 1
    49   24   61 1
    50   24   62 1
    51   25   26 1
    52   25   63 1
    53   25   64 1
    54   26   31 ar
    55   26   27 ar
    56   27   28 ar
    57   27   65 1
    58   28   29 ar
    59   28   66 1
    60   29   30 ar
    61   29   67 1
    62   30   31 ar
    63   30   68 1
    64   31   69 1
    65   32   33 1
    66   32   70 1
    67   33   34 1
    68   33   71 1
    69   33   72 1
    70   34   35 1
    71   34   73 1
    72   34   74 1
    73   35   40 ar
    74   35   36 ar
    75   36   37 ar
    76   36   75 1
    77   37   38 ar
    78   37   76 1
    79   38   39 ar
    80   38   41 1
    81   39   40 ar
    82   39   77 1
    83   40   78 1
    84   41   79 1
@<TRIPOS>MOLECULE
CHEMBL356668__1
   80    84     0     0     0
SMALL
USER_CHARGES

@<TRIPOS>ATOM
      1 C1         -0.0178    1.4608    0.0101 C.3       1 <0>         0.0993
      2 N1          0.0021   -0.0041    0.0020 N.pl3     1 <0>        -0.5710
      3 C2          0.0241   -0.7433    1.2666 C.3       1 <0>         0.1283
      4 C3         -1.4105   -1.0203    1.7205 C.3       1 <0>        -0.1255
      5 C4         -1.3875   -1.7923    3.0413 C.3       1 <0>        -0.0771
      6 C5         -2.8005   -2.0651    3.4884 C.ar      1 <0>        -0.0783
      7 C6         -3.4587   -1.1539    4.2931 C.ar      1 <0>        -0.1048
      8 C7         -4.7547   -1.4036    4.7034 C.ar      1 <0>        -0.1076
      9 C8         -5.3933   -2.5657    4.3087 C.ar      1 <0>        -0.0381
     10 C9         -4.7340   -3.4773    3.5034 C.ar      1 <0>        -0.1080
     11 C10        -3.4400   -3.2238    3.0890 C.ar      1 <0>        -0.1031
     12 Cl1        -7.0209   -2.8802    4.8242 Cl        1 <0>        -0.0671
     13 C11         0.0000   -0.6876   -1.1969 C.ar      1 <0>         0.6577
     14 N2          0.0126   -2.0171   -1.2042 N.ar      1 <0>        -0.6594
     15 C12         0.0106   -2.6754   -2.3589 C.ar      1 <0>         0.6587
     16 N3         -0.0039   -2.0045   -3.5066 N.ar      1 <0>        -0.6813
     17 C13        -0.0169   -0.6754   -3.4993 C.ar      1 <0>         0.6561
     18 N4         -0.0200   -0.0169   -2.3443 N.ar      1 <0>        -0.6771
     19 N5         -0.0315    0.0211   -4.6907 N.pl3     1 <0>        -0.5969
     20 C14        -0.0398    1.4921   -4.7069 C.3       1 <0>         0.1091
     21 C15         1.0694    1.9737   -5.6479 C.3       1 <0>        -0.0210
     22 N6          0.8954    1.3521   -6.9667 N.4       1 <0>        -0.3829
     23 C16         1.0705   -0.1019   -6.8613 C.3       1 <0>        -0.0256
     24 C17        -0.0330   -0.6864   -5.9805 C.3       1 <0>         0.1104
     25 C18         1.8918    1.8973   -7.8984 C.3       1 <0>         0.0447
     26 C19         1.6377    1.3533   -9.2806 C.ar      1 <0>        -0.1622
     27 C20         2.2395    0.1751   -9.6812 C.ar      1 <0>        -0.0984
     28 C21         2.0063   -0.3239  -10.9491 C.ar      1 <0>        -0.1127
     29 C22         1.1710    0.3552  -11.8162 C.ar      1 <0>        -0.0836
     30 C23         0.5685    1.5330  -11.4154 C.ar      1 <0>        -0.1125
     31 C24         0.7982    2.0297  -10.1459 C.ar      1 <0>        -0.0930
     32 N7          0.0241   -4.0554   -2.3664 N.pl3     1 <0>        -0.6832
     33 C25         0.0405   -4.7947   -1.1018 C.3       1 <0>         0.1421
     34 C26         0.0532   -6.2974   -1.3895 C.3       1 <0>        -0.0914
     35 C27         0.0701   -7.0579   -0.0886 C.ar      1 <0>        -0.0957
     36 C28         1.2759   -7.3895    0.5013 C.ar      1 <0>        -0.0950
     37 C29         1.2941   -8.0869    1.6936 C.ar      1 <0>        -0.1429
     38 C30         0.1013   -8.4543    2.2993 C.ar      1 <0>         0.1098
     39 C31        -1.1072   -8.1200    1.7056 C.ar      1 <0>        -0.1423
     40 C32        -1.1201   -7.4179    0.5159 C.ar      1 <0>        -0.0948
     41 O1          0.1166   -9.1409    3.4720 O.3       1 <0>        -0.4992
     42 H1          1.0048    1.8381    0.0023 H         1 <0>         0.0560
     43 H2         -0.5450    1.8219   -0.8730 H         1 <0>         0.0790
     44 H3         -0.5280    1.8123    0.9069 H         1 <0>         0.0743
     45 H4          0.5496   -1.6879    1.1262 H         1 <0>         0.0922
     46 H5          0.5371   -0.1514    2.0246 H         1 <0>         0.0824
     47 H6         -1.9359   -0.0757    1.8610 H         1 <0>         0.0644
     48 H7         -1.9235   -1.6122    0.9626 H         1 <0>         0.0684
     49 H8         -0.8620   -2.7369    2.9008 H         1 <0>         0.0782
     50 H9         -0.8745   -1.2004    3.7993 H         1 <0>         0.0771
     51 H10        -2.9600   -0.2469    4.6014 H         1 <0>         0.1311
     52 H11        -5.2687   -0.6918    5.3324 H         1 <0>         0.1341
     53 H12        -5.2319   -4.3848    3.1952 H         1 <0>         0.1330
     54 H13        -2.9270   -3.9331    2.4564 H         1 <0>         0.1297
     55 H14        -1.0052    1.8490   -5.0659 H         1 <0>         0.0916
     56 H15         0.1430    1.8705   -3.7012 H         1 <0>         0.1417
     57 H16         1.0164    3.0579   -5.7472 H         1 <0>         0.1444
     58 H17         2.0401    1.6931   -5.2391 H         1 <0>         0.1327
     59 H18         1.0183   -0.5473   -7.8548 H         1 <0>         0.1435
     60 H19         2.0412   -0.3197   -6.4158 H         1 <0>         0.1317
     61 H20         0.1544   -1.7476   -5.8164 H         1 <0>         0.1413
     62 H21        -0.9976   -0.5532   -6.4702 H         1 <0>         0.0902
     63 H22         1.8160    2.9845   -7.9161 H         1 <0>         0.1383
     64 H23         2.8908    1.6080   -7.5721 H         1 <0>         0.1347
     65 H24         2.8921   -0.3554   -9.0036 H         1 <0>         0.1308
     66 H25         2.4771   -1.2440  -11.2623 H         1 <0>         0.1364
     67 H26         0.9894   -0.0342  -12.8071 H         1 <0>         0.1360
     68 H27        -0.0839    2.0637  -12.0930 H         1 <0>         0.1363
     69 H28         0.3246    2.9479   -9.8314 H         1 <0>         0.1315
     70 H29         0.0226   -4.5359   -3.2091 H         1 <0>         0.4162
     71 H30         0.9321   -4.5258   -0.5353 H         1 <0>         0.0731
     72 H31        -0.8477   -4.5432   -0.5223 H         1 <0>         0.0735
     73 H32        -0.8384   -6.5663   -1.9560 H         1 <0>         0.0815
     74 H33         0.9415   -6.5489   -1.9690 H         1 <0>         0.0811
     75 H34         2.2042   -7.1033    0.0294 H         1 <0>         0.1263
     76 H35         2.2362   -8.3464    2.1536 H         1 <0>         0.1304
     77 H36        -2.0371   -8.4048    2.1752 H         1 <0>         0.1305
     78 H37        -2.0606   -7.1535    0.0556 H         1 <0>         0.1265
     79 H38         0.1129   -8.5773    4.2578 H         1 <0>         0.3936
     80 H39        -0.0307    1.5539   -7.3127 H         1 <0>         0.4224
@<TRIPOS>BOND
     1    1    2 1
     2    1   42 1
     3    1   43 1
     4    1   44 1
     5    2    3 1
     6    2   13 1
     7    3    4 1
     8    3   45 1
     9    3   46 1
    10    4    5 1
    11    4   47 1
    12    4   48 1
    13    5    6 1
    14    5   49 1
    15    5   50 1
    16    6   11 ar
    17    6    7 ar
    18    7    8 ar
    19    7   51 1
    20    8    9 ar
    21    8   52 1
    22    9   10 ar
    23    9   12 1
    24   10   11 ar
    25   10   53 1
    26   11   54 1
    27   13   18 ar
    28   13   14 ar
    29   14   15 ar
    30   15   16 ar
    31   15   32 1
    32   16   17 ar
    33   17   18 ar
    34   17   19 1
    35   19   24 1
    36   19   20 1
    37   20   21 1
    38   20   55 1
    39   20   56 1
    40   21   22 1
    41   21   57 1
    42   21   58 1
    43   22   23 1
    44   22   25 1
    45   22   80 1
    46   23   24 1
    47   23   59 1
    48   23   60 1
    49   24   61 1
    50   24   62 1
    51   25   26 1
    52   25   63 1
    53   25   64 1
    54   26   31 ar
    55   26   27 ar
    56   27   28 ar
    57   27   65 1
    58   28   29 ar
    59   28   66 1
    60   29   30 ar
    61   29   67 1
    62   30   31 ar
    63   30   68 1
    64   31   69 1
    65   32   33 1
    66   32   70 1
    67   33   34 1
    68   33   71 1
    69   33   72 1
    70   34   35 1
    71   34   73 1
    72   34   74 1
    73   35   40 ar
    74   35   36 ar
    75   36   37 ar
    76   36   75 1
    77   37   38 ar
    78   37   76 1
    79   38   39 ar
    80   38   41 1
    81   39   40 ar
    82   39   77 1
    83   40   78 1
    84   41   79 1
@<TRIPOS>MOLECULE
CHEMBL356668__2
   79    83     0     0     0
SMALL
USER_CHARGES

@<TRIPOS>ATOM
      1 C1         -0.0178    1.4608    0.0101 C.3       1 <0>         0.1026
      2 N1          0.0021   -0.0041    0.0020 N.pl3     1 <0>        -0.5787
      3 C2          0.0241   -0.7433    1.2666 C.3       1 <0>         0.1334
      4 C3         -1.4105   -1.0203    1.7205 C.3       1 <0>        -0.1262
      5 C4         -1.3875   -1.7923    3.0413 C.3       1 <0>        -0.0775
      6 C5         -2.8005   -2.0651    3.4884 C.ar      1 <0>        -0.0743
      7 C6         -3.4587   -1.1539    4.2931 C.ar      1 <0>        -0.1053
      8 C7         -4.7547   -1.4036    4.7034 C.ar      1 <0>        -0.1084
      9 C8         -5.3933   -2.5657    4.3087 C.ar      1 <0>        -0.0396
     10 C9         -4.7340   -3.4773    3.5034 C.ar      1 <0>        -0.1080
     11 C10        -3.4400   -3.2238    3.0890 C.ar      1 <0>        -0.1026
     12 Cl1        -7.0209   -2.8802    4.8242 Cl        1 <0>        -0.0713
     13 C11         0.0000   -0.6876   -1.1969 C.ar      1 <0>         0.6529
     14 N2          0.0126   -2.0171   -1.2042 N.ar      1 <0>        -0.6724
     15 C12         0.0106   -2.6754   -2.3589 C.ar      1 <0>         0.6538
     16 N3         -0.0039   -2.0045   -3.5066 N.ar      1 <0>        -0.6820
     17 C13        -0.0169   -0.6754   -3.4993 C.ar      1 <0>         0.6570
     18 N4         -0.0200   -0.0169   -2.3443 N.ar      1 <0>        -0.6778
     19 N5         -0.0315    0.0211   -4.6907 N.pl3     1 <0>        -0.5753
     20 C14        -0.0399    1.4918   -4.7054 C.3       1 <0>         0.1344
     21 C15         1.0813    1.9758   -5.6311 C.3       1 <0>         0.0412
     22 N6          0.9335    1.3407   -6.9474 N.3       1 <0>        -0.5318
     23 C16         1.0820   -0.1179   -6.8550 C.3       1 <0>         0.0373
     24 C17        -0.0330   -0.6876   -5.9795 C.3       1 <0>         0.1345
     25 C18         1.8836    1.9064   -7.9145 C.3       1 <0>         0.0942
     26 C19         1.5439    1.4156   -9.2983 C.ar      1 <0>        -0.0798
     27 C20         2.1049    0.2451   -9.7736 C.ar      1 <0>        -0.1159
     28 C21         1.7934   -0.2051  -11.0429 C.ar      1 <0>        -0.1202
     29 C22         0.9204    0.5151  -11.8368 C.ar      1 <0>        -0.1190
     30 C23         0.3587    1.6852  -11.3611 C.ar      1 <0>        -0.1203
     31 C24         0.6669    2.1331  -10.0902 C.ar      1 <0>        -0.0973
     32 N7          0.0241   -4.0554   -2.3664 N.pl3     1 <0>        -0.6912
     33 C25         0.0405   -4.7947   -1.1018 C.3       1 <0>         0.1471
     34 C26         0.0532   -6.2974   -1.3895 C.3       1 <0>        -0.0936
     35 C27         0.0701   -7.0579   -0.0886 C.ar      1 <0>        -0.0895
     36 C28         1.2759   -7.3895    0.5013 C.ar      1 <0>        -0.0954
     37 C29         1.2941   -8.0869    1.6936 C.ar      1 <0>        -0.1430
     38 C30         0.1013   -8.4543    2.2993 C.ar      1 <0>         0.1049
     39 C31        -1.1072   -8.1200    1.7056 C.ar      1 <0>        -0.1426
     40 C32        -1.1201   -7.4179    0.5159 C.ar      1 <0>        -0.0954
     41 O1          0.1166   -9.1409    3.4720 O.3       1 <0>        -0.5003
     42 H1          1.0048    1.8381    0.0023 H         1 <0>         0.0523
     43 H2         -0.5450    1.8219   -0.8730 H         1 <0>         0.0807
     44 H3         -0.5280    1.8123    0.9069 H         1 <0>         0.0683
     45 H4          0.5496   -1.6879    1.1262 H         1 <0>         0.0896
     46 H5          0.5371   -0.1514    2.0246 H         1 <0>         0.0767
     47 H6         -1.9359   -0.0757    1.8610 H         1 <0>         0.0629
     48 H7         -1.9235   -1.6122    0.9626 H         1 <0>         0.0693
     49 H8         -0.8620   -2.7369    2.9008 H         1 <0>         0.0778
     50 H9         -0.8745   -1.2004    3.7993 H         1 <0>         0.0757
     51 H10        -2.9600   -0.2469    4.6014 H         1 <0>         0.1310
     52 H11        -5.2687   -0.6918    5.3324 H         1 <0>         0.1328
     53 H12        -5.2319   -4.3848    3.1952 H         1 <0>         0.1322
     54 H13        -2.9270   -3.9331    2.4564 H         1 <0>         0.1307
     55 H14        -1.0007    1.8488   -5.0762 H         1 <0>         0.0736
     56 H15         0.1296    1.8690   -3.6968 H         1 <0>         0.1027
     57 H16         1.0204    3.0586   -5.7408 H         1 <0>         0.0898
     58 H17         2.0473    1.7068   -5.2039 H         1 <0>         0.0385
     59 H18         1.0217   -0.5535   -7.8524 H         1 <0>         0.0935
     60 H19         2.0480   -0.3577   -6.4107 H         1 <0>         0.0367
     61 H20         0.1411   -1.7507   -5.8130 H         1 <0>         0.1022
     62 H21        -0.9931   -0.5442   -6.4752 H         1 <0>         0.0725
     63 H22         1.8228    2.9944   -7.8898 H         1 <0>         0.0857
     64 H23         2.8951    1.5930   -7.6560 H         1 <0>         0.0433
     65 H24         2.7870   -0.3176   -9.1534 H         1 <0>         0.1175
     66 H25         2.2322   -1.1192  -11.4146 H         1 <0>         0.1213
     67 H26         0.6775    0.1638  -12.8287 H         1 <0>         0.1210
     68 H27        -0.3231    2.2480  -11.9815 H         1 <0>         0.1220
     69 H28         0.2252    3.0453   -9.7172 H         1 <0>         0.1224
     70 H29         0.0226   -4.5359   -3.2091 H         1 <0>         0.4143
     71 H30         0.9321   -4.5258   -0.5353 H         1 <0>         0.0690
     72 H31        -0.8477   -4.5432   -0.5223 H         1 <0>         0.0694
     73 H32        -0.8384   -6.5663   -1.9560 H         1 <0>         0.0812
     74 H33         0.9415   -6.5489   -1.9690 H         1 <0>         0.0810
     75 H34         2.2042   -7.1033    0.0294 H         1 <0>         0.1270
     76 H35         2.2362   -8.3464    2.1536 H         1 <0>         0.1289
     77 H36        -2.0371   -8.4048    2.1752 H         1 <0>         0.1290
     78 H37        -2.0606   -7.1535    0.0556 H         1 <0>         0.1270
     79 H38         0.1129   -8.5773    4.2578 H         1 <0>         0.3918
@<TRIPOS>BOND
     1    1    2 1
     2    1   42 1
     3    1   43 1
     4    1   44 1
     5    2    3 1
     6    2   13 1
     7    3    4 1
     8    3   45 1
     9    3   46 1
    10    4    5 1
    11    4   47 1
    12    4   48 1
    13    5    6 1
    14    5   49 1
    15    5   50 1
    16    6   11 ar
    17    6    7 ar
    18    7    8 ar
    19    7   51 1
    20    8    9 ar
    21    8   52 1
    22    9   10 ar
    23    9   12 1
    24   10   11 ar
    25   10   53 1
    26   11   54 1
    27   13   18 ar
    28   13   14 ar
    29   14   15 ar
    30   15   16 ar
    31   15   32 1
    32   16   17 ar
    33   17   18 ar
    34   17   19 1
    35   19   24 1
    36   19   20 1
    37   20   21 1
    38   20   55 1
    39   20   56 1
    40   21   22 1
    41   21   57 1
    42   21   58 1
    43   22   23 1
    44   22   25 1
    45   23   24 1
    46   23   59 1
    47   23   60 1
    48   24   61 1
    49   24   62 1
    50   25   26 1
    51   25   63 1
    52   25   64 1
    53   26   31 ar
    54   26   27 ar
    55   27   28 ar
    56   27   65 1
    57   28   29 ar
    58   28   66 1
    59   29   30 ar
    60   29   67 1
    61   30   31 ar
    62   30   68 1
    63   31   69 1
    64   32   33 1
    65   32   70 1
    66   33   34 1
    67   33   71 1
    68   33   72 1
    69   34   35 1
    70   34   73 1
    71   34   74 1
    72   35   40 ar
    73   35   36 ar
    74   36   37 ar
    75   36   75 1
    76   37   38 ar
    77   37   76 1
    78   38   39 ar
    79   38   41 1
    80   39   40 ar
    81   39   77 1
    82   40   78 1
    83   41   79 1
@<TRIPOS>MOLECULE
CHEMBL356668__3
   81    85     0     0     0
SMALL
USER_CHARGES

@<TRIPOS>ATOM
      1 C1         -0.0178    1.4608    0.0101 C.3       1 <0>         0.0505
      2 N1          0.0021   -0.0041    0.0020 N.pl3     1 <0>        -0.5410
      3 C2          0.0241   -0.7433    1.2666 C.3       1 <0>         0.1117
      4 C3         -1.4105   -1.0203    1.7205 C.3       1 <0>        -0.1305
      5 C4         -1.3875   -1.7923    3.0413 C.3       1 <0>        -0.0747
      6 C5         -2.8005   -2.0651    3.4884 C.ar      1 <0>        -0.0895
      7 C6         -3.4587   -1.1539    4.2931 C.ar      1 <0>        -0.1012
      8 C7         -4.7547   -1.4036    4.7034 C.ar      1 <0>        -0.1034
      9 C8         -5.3933   -2.5657    4.3087 C.ar      1 <0>        -0.0337
     10 C9         -4.7340   -3.4773    3.5034 C.ar      1 <0>        -0.1097
     11 C10        -3.4400   -3.2238    3.0890 C.ar      1 <0>        -0.1070
     12 Cl1        -7.0209   -2.8802    4.8242 Cl        1 <0>        -0.0556
     13 C11         0.0000   -0.6876   -1.1969 C.ar      1 <0>         0.6882
     14 N2         -0.0145   -0.0167   -2.3446 N.ar      1 <0>        -0.6346
     15 C12        -0.0165   -0.6751   -3.4993 C.ar      1 <0>         0.6999
     16 N3         -0.0039   -2.0045   -3.5066 N.ar      1 <0>        -0.6254
     17 C13         0.0110   -2.6753   -2.3592 C.ar      1 <0>         0.6918
     18 N4          0.0180   -2.0167   -1.2042 N.ar      1 <0>        -0.6197
     19 N5          0.0236   -4.0553   -2.3667 N.pl3     1 <0>        -0.5654
     20 C14         0.0340   -4.8185   -1.1091 C.3       1 <0>         0.0945
     21 C15        -1.0770   -5.8719   -1.1711 C.3       1 <0>        -0.0228
     22 N6         -0.9073   -6.6905   -2.3782 N.4       1 <0>        -0.3860
     23 C16        -1.0843   -5.8589   -3.5753 C.3       1 <0>        -0.0276
     24 C17         0.0207   -4.8048   -3.6325 C.3       1 <0>         0.0961
     25 C18        -1.9053   -7.7684   -2.3810 C.3       1 <0>         0.0455
     26 C19        -1.6555   -8.6812   -3.5538 C.ar      1 <0>        -0.1692
     27 C20        -2.2601   -8.4249   -4.7702 C.ar      1 <0>        -0.1005
     28 C21        -2.0310   -9.2622   -5.8460 C.ar      1 <0>        -0.1117
     29 C22        -1.1969  -10.3555   -5.7055 C.ar      1 <0>        -0.0786
     30 C23        -0.5916  -10.6114   -4.4894 C.ar      1 <0>        -0.1101
     31 C24        -0.8173   -9.7716   -3.4148 C.ar      1 <0>        -0.0915
     32 N7         -0.0320    0.0214   -4.6907 N.pl3     1 <0>        -0.6504
     33 C25        -0.0463    1.4863   -4.6827 C.3       1 <0>         0.0878
     34 C26        -0.0619    2.0041   -6.1224 C.3       1 <0>        -0.0828
     35 C27        -0.0766    3.5110   -6.1141 C.ar      1 <0>        -0.1179
     36 C28        -1.2813    4.1893   -6.0959 C.ar      1 <0>        -0.0932
     37 C29        -1.2975    5.5706   -6.0887 C.ar      1 <0>        -0.1428
     38 C30        -0.1036    6.2772   -6.0994 C.ar      1 <0>         0.1240
     39 C31         1.1038    5.5943   -6.1173 C.ar      1 <0>        -0.1424
     40 C32         1.1146    4.2128   -6.1191 C.ar      1 <0>        -0.0928
     41 O1         -0.1169    7.6362   -6.0929 O.3       1 <0>        -0.4957
     42 H1          1.0048    1.8381    0.0023 H         1 <0>         0.0967
     43 H2         -0.5450    1.8219   -0.8730 H         1 <0>         0.0761
     44 H3         -0.5280    1.8123    0.9069 H         1 <0>         0.1192
     45 H4          0.5496   -1.6879    1.1262 H         1 <0>         0.1073
     46 H5          0.5371   -0.1514    2.0246 H         1 <0>         0.1102
     47 H6         -1.9359   -0.0757    1.8610 H         1 <0>         0.0754
     48 H7         -1.9235   -1.6122    0.9626 H         1 <0>         0.0704
     49 H8         -0.8620   -2.7369    2.9008 H         1 <0>         0.0791
     50 H9         -0.8745   -1.2004    3.7993 H         1 <0>         0.0838
     51 H10        -2.9600   -0.2469    4.6014 H         1 <0>         0.1331
     52 H11        -5.2687   -0.6918    5.3324 H         1 <0>         0.1384
     53 H12        -5.2319   -4.3848    3.1952 H         1 <0>         0.1336
     54 H13        -2.9270   -3.9331    2.4564 H         1 <0>         0.1243
     55 H14         0.9990   -5.3106   -0.9873 H         1 <0>         0.1120
     56 H15        -0.1457   -4.1455   -0.2707 H         1 <0>         0.1478
     57 H16        -1.0226   -6.5098   -0.2888 H         1 <0>         0.1554
     58 H17        -2.0470   -5.3758   -1.2018 H         1 <0>         0.1375
     59 H18        -1.0353   -6.4871   -4.4648 H         1 <0>         0.1547
     60 H19        -2.0541   -5.3631   -3.5333 H         1 <0>         0.1366
     61 H20        -0.1678   -4.1228   -4.4616 H         1 <0>         0.1475
     62 H21         0.9842   -5.2955   -3.7698 H         1 <0>         0.1108
     63 H22        -1.8280   -8.3376   -1.4547 H         1 <0>         0.1425
     64 H23        -2.9038   -7.3388   -2.4612 H         1 <0>         0.1371
     65 H24        -2.9117   -7.5706   -4.8800 H         1 <0>         0.1298
     66 H25        -2.5039   -9.0623   -6.7962 H         1 <0>         0.1379
     67 H26        -1.0184  -11.0101   -6.5458 H         1 <0>         0.1387
     68 H27         0.0598  -11.4658   -4.3795 H         1 <0>         0.1388
     69 H28        -0.3415   -9.9694   -2.4656 H         1 <0>         0.1324
     70 H29        -0.0334   -0.4590   -5.5334 H         1 <0>         0.4464
     71 H30        -0.9360    1.8381   -4.1604 H         1 <0>         0.0917
     72 H31         0.8438    1.8556   -4.1734 H         1 <0>         0.0927
     73 H32         0.8278    1.6523   -6.6447 H         1 <0>         0.0941
     74 H33        -0.9520    1.6348   -6.6317 H         1 <0>         0.0936
     75 H34        -2.2104    3.6388   -6.0876 H         1 <0>         0.1278
     76 H35        -2.2387    6.1000   -6.0752 H         1 <0>         0.1354
     77 H36         2.0345    6.1421   -6.1256 H         1 <0>         0.1357
     78 H37         2.0544    3.6807   -6.1285 H         1 <0>         0.1284
     79 H38        -0.1104    8.0253   -5.2077 H         1 <0>         0.3984
     80 H39        -0.0240    0.9532   -2.3393 H         1 <0>         0.4403
     81 H40         0.0182   -7.0924   -2.3832 H         1 <0>         0.4259
@<TRIPOS>BOND
     1    1    2 1
     2    1   42 1
     3    1   43 1
     4    1   44 1
     5    2    3 1
     6    2   13 1
     7    3    4 1
     8    3   45 1
     9    3   46 1
    10    4    5 1
    11    4   47 1
    12    4   48 1
    13    5    6 1
    14    5   49 1
    15    5   50 1
    16    6   11 ar
    17    6    7 ar
    18    7    8 ar
    19    7   51 1
    20    8    9 ar
    21    8   52 1
    22    9   10 ar
    23    9   12 1
    24   10   11 ar
    25   10   53 1
    26   11   54 1
    27   13   18 ar
    28   13   14 ar
    29   14   15 ar
    30   14   80 1
    31   15   16 ar
    32   15   32 1
    33   16   17 ar
    34   17   18 ar
    35   17   19 1
    36   19   24 1
    37   19   20 1
    38   20   21 1
    39   20   55 1
    40   20   56 1
    41   21   22 1
    42   21   57 1
    43   21   58 1
    44   22   23 1
    45   22   25 1
    46   22   81 1
    47   23   24 1
    48   23   59 1
    49   23   60 1
    50   24   61 1
    51   24   62 1
    52   25   26 1
    53   25   63 1
    54   25   64 1
    55   26   31 ar
    56   26   27 ar
    57   27   28 ar
    58   27   65 1
    59   28   29 ar
    60   28   66 1
    61   29   30 ar
    62   29   67 1
    63   30   31 ar
    64   30   68 1
    65   31   69 1
    66   32   33 1
    67   32   70 1
    68   33   34 1
    69   33   71 1
    70   33   72 1
    71   34   35 1
    72   34   73 1
    73   34   74 1
    74   35   40 ar
    75   35   36 ar
    76   36   37 ar
    77   36   75 1
    78   37   38 ar
    79   37   76 1
    80   38   39 ar
    81   38   41 1
    82   39   40 ar
    83   39   77 1
    84   40   78 1
    85   41   79 1
@<TRIPOS>MOLECULE
CHEMBL94030
   63    67     0     0     0
SMALL
USER_CHARGES

@<TRIPOS>ATOM
      1 C1         -0.0396    0.6852   -0.4191 C.ar      1 <0>        -0.0813
      2 C2          1.2334    1.2202   -0.4572 C.ar      1 <0>        -0.1440
      3 C3          2.3370    0.3928   -0.3084 C.ar      1 <0>         0.1167
      4 C4          2.1590   -0.9703   -0.1218 C.ar      1 <0>        -0.1393
      5 C5          0.8838   -1.5005   -0.0845 C.ar      1 <0>        -0.0894
      6 C6         -0.2144   -0.6737   -0.2330 C.ar      1 <0>        -0.0904
      7 C7         -1.6043   -1.2546   -0.1914 C.3       1 <0>        -0.0681
      8 H1         -2.3347   -0.4605   -0.0364 H         1 <0>         0.1420
      9 C8         -1.9038   -1.9937   -1.5064 C.3       1 <0>         0.1488
     10 H2         -2.8573   -2.5151   -1.4226 H         1 <0>         0.1003
     11 O1         -0.8693   -2.9330   -1.7559 O.3       1 <0>        -0.2994
     12 C9         -0.5808   -3.9296   -0.8878 C.ar      1 <0>         0.1774
     13 C10         0.0558   -5.0616   -1.3940 C.ar      1 <0>        -0.1726
     14 C11         0.3938   -6.1116   -0.5591 C.ar      1 <0>         0.1784
     15 C12         0.1023   -6.0472    0.7956 C.ar      1 <0>        -0.1928
     16 C13        -0.5342   -4.9309    1.3063 C.ar      1 <0>         0.1750
     17 C14        -0.8813   -3.8779    0.4675 C.ar      1 <0>        -0.2194
     18 S1         -1.7255   -2.4805    1.1491 S.3       1 <0>        -0.0593
     19 F1         -0.8200   -4.8634    2.6250 F         1 <0>        -0.1157
     20 O2          1.0132   -7.2102   -1.0679 O.3       1 <0>        -0.4867
     21 C15        -1.9699   -1.0013   -2.6386 C.ar      1 <0>        -0.1044
     22 C16        -0.8104   -0.6113   -3.2830 C.ar      1 <0>        -0.0351
     23 C17        -0.8682    0.2986   -4.3208 C.ar      1 <0>        -0.1409
     24 C18        -2.0910    0.8208   -4.7167 C.ar      1 <0>         0.1247
     25 C19        -3.2530    0.4276   -4.0688 C.ar      1 <0>        -0.2026
     26 C20        -3.1904   -0.4866   -3.0349 C.ar      1 <0>        -0.0591
     27 O3         -2.1504    1.7164   -5.7371 O.3       1 <0>        -0.3270
     28 C21        -3.4432    2.2121   -6.0907 C.3       1 <0>         0.0250
     29 C22        -3.3104    3.2010   -7.2506 C.3       1 <0>        -0.0010
     30 N1         -2.7925    2.5012   -8.4339 N.4       1 <0>        -0.3843
     31 C23        -2.5193    3.4762   -9.4965 C.3       1 <0>        -0.0070
     32 C24        -1.9038    2.7631  -10.7024 C.3       1 <0>        -0.1468
     33 C25        -2.8838    1.7051  -11.2177 C.3       1 <0>        -0.1390
     34 C26        -3.2193    0.7368  -10.0798 C.3       1 <0>        -0.1455
     35 C27        -3.7860    1.5250   -8.8970 C.3       1 <0>        -0.0130
     36 O4          3.5904    0.9166   -0.3460 O.3       1 <0>        -0.4997
     37 H3         -0.8992    1.3295   -0.5303 H         1 <0>         0.1250
     38 H4          1.3694    2.2816   -0.6029 H         1 <0>         0.1308
     39 H5          3.0165   -1.6166   -0.0061 H         1 <0>         0.1311
     40 H6          0.7447   -2.5616    0.0608 H         1 <0>         0.1288
     41 H7          0.2869   -5.1196   -2.4474 H         1 <0>         0.1493
     42 H8          0.3714   -6.8646    1.4481 H         1 <0>         0.1550
     43 H9          1.9786   -7.1546   -1.0639 H         1 <0>         0.4027
     44 H10         0.1413   -1.0181   -2.9745 H         1 <0>         0.1391
     45 H11         0.0379    0.6035   -4.8234 H         1 <0>         0.1355
     46 H12        -4.2061    0.8327   -4.3751 H         1 <0>         0.1319
     47 H13        -4.0952   -0.7964   -2.5331 H         1 <0>         0.1354
     48 H14        -4.0808    1.3813   -6.3928 H         1 <0>         0.0872
     49 H15        -3.8862    2.7166   -5.2321 H         1 <0>         0.1101
     50 H16        -4.2876    3.6266   -7.4790 H         1 <0>         0.1493
     51 H17        -2.6230    3.9992   -6.9707 H         1 <0>         0.1427
     52 H18        -3.4505    3.9573   -9.7958 H         1 <0>         0.1292
     53 H19        -1.8242    4.2303   -9.1272 H         1 <0>         0.1311
     54 H20        -1.7033    3.4884  -11.4909 H         1 <0>         0.1132
     55 H21        -0.9723    2.2818  -10.4042 H         1 <0>         0.0881
     56 H22        -3.7961    2.1911  -11.5637 H         1 <0>         0.0821
     57 H23        -2.4273    1.1558  -12.0411 H         1 <0>         0.0948
     58 H24        -3.9591    0.0138  -10.4233 H         1 <0>         0.1124
     59 H25        -2.3151    0.2135   -9.7687 H         1 <0>         0.0880
     60 H26        -4.0261    0.8386   -8.0851 H         1 <0>         0.1272
     61 H27        -4.6902    2.0477   -9.2091 H         1 <0>         0.1303
     62 H28         3.9278    1.1916    0.5175 H         1 <0>         0.3959
     63 H29        -1.9383    2.0216   -8.1926 H         1 <0>         0.4295
@<TRIPOS>BOND
     1    1    6 ar
     2    1    2 ar
     3    1   37 1
     4    2    3 ar
     5    2   38 1
     6    3    4 ar
     7    3   36 1
     8    4    5 ar
     9    4   39 1
    10    5    6 ar
    11    5   40 1
    12    6    7 1
    13    7    8 1
    14    7   18 1
    15    7    9 1
    16    9   10 1
    17    9   11 1
    18    9   21 1
    19   11   12 1
    20   12   17 ar
    21   12   13 ar
    22   13   14 ar
    23   13   41 1
    24   14   15 ar
    25   14   20 1
    26   15   16 ar
    27   15   42 1
    28   16   17 ar
    29   16   19 1
    30   17   18 1
    31   20   43 1
    32   21   26 ar
    33   21   22 ar
    34   22   23 ar
    35   22   44 1
    36   23   24 ar
    37   23   45 1
    38   24   25 ar
    39   24   27 1
    40   25   26 ar
    41   25   46 1
    42   26   47 1
    43   27   28 1
    44   28   29 1
    45   28   48 1
    46   28   49 1
    47   29   30 1
    48   29   50 1
    49   29   51 1
    50   30   35 1
    51   30   31 1
    52   30   63 1
    53   31   32 1
    54   31   52 1
    55   31   53 1
    56   32   33 1
    57   32   54 1
    58   32   55 1
    59   33   34 1
    60   33   56 1
    61   33   57 1
    62   34   35 1
    63   34   58 1
    64   34   59 1
    65   35   60 1
    66   35   61 1
    67   36   62 1
@<TRIPOS>MOLECULE
CHEMBL46903
   62    65     0     0     0
SMALL
USER_CHARGES

@<TRIPOS>ATOM
      1 C1         -0.0184    1.5028    0.0103 C.3       1 <0>        -0.0843
      2 C2          0.0021   -0.0041    0.0020 C.2       1 <0>        -0.1413
      3 C3          0.0091   -0.8675   -1.1778 C.ar      1 <0>        -0.0884
      4 C4         -0.0004   -0.6231   -2.5546 C.ar      1 <0>        -0.0919
      5 C5          0.0107   -1.6853   -3.4358 C.ar      1 <0>         0.0783
      6 C6          0.0312   -2.9935   -2.9582 C.ar      1 <0>        -0.1164
      7 C7          0.0407   -3.2464   -1.6044 C.ar      1 <0>        -0.1167
      8 C8          0.0298   -2.1908   -0.6991 C.ar      1 <0>         0.1006
      9 N1          0.0350   -2.1304    0.6795 N.pl3     1 <0>        -0.4776
     10 C9          0.0234   -0.8169    1.0876 C.2       1 <0>         0.1133
     11 C10         0.0303   -0.3610    2.4942 C.ar      1 <0>        -0.0367
     12 C11        -0.8022   -0.9735    3.4324 C.ar      1 <0>        -0.0957
     13 C12        -0.7930   -0.5455    4.7428 C.ar      1 <0>        -0.1425
     14 C13         0.0430    0.4934    5.1299 C.ar      1 <0>         0.1139
     15 C14         0.8723    1.1056    4.1995 C.ar      1 <0>        -0.1401
     16 C15         0.8734    0.6793    2.8885 C.ar      1 <0>        -0.0767
     17 O1          0.0492    0.9124    6.4224 O.3       1 <0>        -0.4960
     18 C16         0.0553   -3.2906    1.5738 C.3       1 <0>         0.1031
     19 C17         1.5047   -3.6737    1.8793 C.3       1 <0>        -0.1366
     20 C18         1.5259   -4.8854    2.8133 C.3       1 <0>        -0.1170
     21 C19         2.9753   -5.2685    3.1188 C.3       1 <0>        -0.1163
     22 C20         2.9965   -6.4802    4.0528 C.3       1 <0>        -0.1475
     23 C21         4.4459   -6.8633    4.3583 C.3       1 <0>        -0.0061
     24 N2          4.4663   -8.0267    5.2550 N.4       1 <0>        -0.3952
     25 C22         3.9724   -9.2321    4.5414 C.3       1 <0>        -0.0070
     26 C23         4.5672  -10.4010    5.3663 C.3       1 <0>        -0.1462
     27 C24         5.9639   -9.8693    5.7619 C.3       1 <0>        -0.1457
     28 C25         5.8556   -8.3368    5.6566 C.3       1 <0>        -0.0088
     29 O2          0.0011   -1.4537   -4.7757 O.3       1 <0>        -0.4962
     30 H1          1.0042    1.8801    0.0026 H         1 <0>         0.0668
     31 H2         -0.5455    1.8639   -0.8728 H         1 <0>         0.0682
     32 H3         -0.5286    1.8543    0.9071 H         1 <0>         0.0665
     33 H4         -0.0167    0.3908   -2.9262 H         1 <0>         0.1309
     34 H5          0.0394   -3.8175   -3.6563 H         1 <0>         0.1326
     35 H6          0.0563   -4.2650   -1.2457 H         1 <0>         0.1208
     36 H7         -1.4530   -1.7814    3.1320 H         1 <0>         0.1266
     37 H8         -1.4371   -1.0187    5.4692 H         1 <0>         0.1325
     38 H9          1.5208    1.9136    4.5043 H         1 <0>         0.1357
     39 H10         1.5224    1.1524    2.1665 H         1 <0>         0.1344
     40 H11         0.6888    0.4513    6.9822 H         1 <0>         0.3920
     41 H12        -0.4584   -3.0424    2.5026 H         1 <0>         0.0932
     42 H13        -0.4485   -4.1290    1.0928 H         1 <0>         0.0873
     43 H14         2.0184   -3.9219    0.9505 H         1 <0>         0.0716
     44 H15         2.0085   -2.8353    2.3604 H         1 <0>         0.0719
     45 H16         1.0122   -4.6372    3.7421 H         1 <0>         0.0696
     46 H17         1.0222   -5.7238    2.3323 H         1 <0>         0.0696
     47 H18         3.4890   -5.5167    2.1900 H         1 <0>         0.0746
     48 H19         3.4791   -4.4301    3.5998 H         1 <0>         0.0745
     49 H20         2.4829   -6.2320    4.9816 H         1 <0>         0.0863
     50 H21         2.4928   -7.3186    3.5717 H         1 <0>         0.0864
     51 H22         4.9596   -7.1115    3.4295 H         1 <0>         0.1288
     52 H23         4.9497   -6.0249    4.8393 H         1 <0>         0.1291
     53 H24         2.8830   -9.2674    4.5543 H         1 <0>         0.1345
     54 H25         4.3469   -9.2538    3.5180 H         1 <0>         0.1333
     55 H26         3.9629  -10.5943    6.2526 H         1 <0>         0.0980
     56 H27         4.6552  -11.2990    4.7548 H         1 <0>         0.1166
     57 H28         6.2048  -10.1623    6.7838 H         1 <0>         0.1052
     58 H29         6.7204  -10.2434    5.0720 H         1 <0>         0.1037
     59 H30         6.5512   -7.9662    4.9037 H         1 <0>         0.1301
     60 H31         6.0731   -7.8819    6.6229 H         1 <0>         0.1317
     61 H32         0.8816   -1.3740   -5.1674 H         1 <0>         0.3882
     62 H33         3.9001   -7.8477    6.0707 H         1 <0>         0.4263
@<TRIPOS>BOND
     1    1    2 1
     2    1   30 1
     3    1   31 1
     4    1   32 1
     5    2   10 2
     6    2    3 1
     7    3    8 ar
     8    3    4 ar
     9    4    5 ar
    10    4   33 1
    11    5    6 ar
    12    5   29 1
    13    6    7 ar
    14    6   34 1
    15    7    8 ar
    16    7   35 1
    17    8    9 1
    18    9   10 1
    19    9   18 1
    20   10   11 1
    21   11   16 ar
    22   11   12 ar
    23   12   13 ar
    24   12   36 1
    25   13   14 ar
    26   13   37 1
    27   14   15 ar
    28   14   17 1
    29   15   16 ar
    30   15   38 1
    31   16   39 1
    32   17   40 1
    33   18   19 1
    34   18   41 1
    35   18   42 1
    36   19   20 1
    37   19   43 1
    38   19   44 1
    39   20   21 1
    40   20   45 1
    41   20   46 1
    42   21   22 1
    43   21   47 1
    44   21   48 1
    45   22   23 1
    46   22   49 1
    47   22   50 1
    48   23   24 1
    49   23   51 1
    50   23   52 1
    51   24   28 1
    52   24   25 1
    53   24   62 1
    54   25   26 1
    55   25   53 1
    56   25   54 1
    57   26   27 1
    58   26   55 1
    59   26   56 1
    60   27   28 1
    61   27   57 1
    62   27   58 1
    63   28   59 1
    64   28   60 1
    65   29   61 1
@<TRIPOS>MOLECULE
CHEMBL187105
   32    35     0     0     0
SMALL
USER_CHARGES

@<TRIPOS>ATOM
      1 C1         -0.0170    1.4025    0.0098 C.ar      1 <0>        -0.1019
      2 C2          1.1498    2.0973    0.0023 C.ar      1 <0>        -0.0867
      3 C3          2.3856    1.4300   -0.0135 C.ar      1 <0>        -0.0433
      4 C4          2.4381    0.0476   -0.0218 C.ar      1 <0>        -0.0498
      5 C5          1.2443   -0.6886   -0.0140 C.ar      1 <0>        -0.0655
      6 C6          0.0021   -0.0041    0.0020 C.ar      1 <0>        -0.0216
      7 C7         -1.1911   -0.7442    0.0089 C.ar      1 <0>        -0.1408
      8 C8         -1.1404   -2.1094    0.0007 C.ar      1 <0>         0.1233
      9 C9          0.0856   -2.7823   -0.0146 C.ar      1 <0>        -0.1393
     10 C10         1.2590   -2.0956   -0.0226 C.ar      1 <0>        -0.0791
     11 O1         -2.2965   -2.8230    0.0079 O.3       1 <0>        -0.4989
     12 C11         3.6437    2.2133   -0.0218 C.2       1 <0>         0.1784
     13 C12         3.8639    3.5050   -0.6916 C.ar      1 <0>        -0.1973
     14 C13         3.0533    4.3403   -1.4619 C.ar      1 <0>        -0.0219
     15 C14         3.5573    5.5077   -1.9594 C.ar      1 <0>        -0.1706
     16 C15         4.8773    5.8716   -1.7036 C.ar      1 <0>         0.1717
     17 C16         5.6947    5.0553   -0.9424 C.ar      1 <0>        -0.1562
     18 C17         5.1951    3.8655   -0.4293 C.ar      1 <0>         0.1045
     19 O2          5.7337    2.8875    0.3274 O.3       1 <0>        -0.0844
     20 N1          4.7633    1.8888    0.5691 N.2       1 <0>        -0.2777
     21 O3          5.3654    7.0357   -2.2054 O.3       1 <0>        -0.4904
     22 H1         -0.9594    1.9298    0.0261 H         1 <0>         0.1382
     23 H2          1.1272    3.1771    0.0083 H         1 <0>         0.1322
     24 H3          3.3910   -0.4607   -0.0347 H         1 <0>         0.1380
     25 H4         -2.1443   -0.2366    0.0211 H         1 <0>         0.1379
     26 H5          0.1004   -3.8622   -0.0205 H         1 <0>         0.1344
     27 H6          2.1986   -2.6279   -0.0347 H         1 <0>         0.1370
     28 H7         -2.6398   -3.0245   -0.8734 H         1 <0>         0.3950
     29 H8          2.0292    4.0634   -1.6645 H         1 <0>         0.1409
     30 H9          2.9287    6.1528   -2.5553 H         1 <0>         0.1443
     31 H10         6.7175    5.3422   -0.7479 H         1 <0>         0.1478
     32 H11         5.2484    7.7962   -1.6197 H         1 <0>         0.4016
@<TRIPOS>BOND
     1    1    6 ar
     2    1    2 ar
     3    1   22 1
     4    2    3 ar
     5    2   23 1
     6    3    4 ar
     7    3   12 1
     8    4    5 ar
     9    4   24 1
    10    5   10 ar
    11    5    6 ar
    12    6    7 ar
    13    7    8 ar
    14    7   25 1
    15    8    9 ar
    16    8   11 1
    17    9   10 ar
    18    9   26 1
    19   10   27 1
    20   11   28 1
    21   12   20 2
    22   12   13 1
    23   13   18 ar
    24   13   14 ar
    25   14   15 ar
    26   14   29 1
    27   15   16 ar
    28   15   30 1
    29   16   17 ar
    30   16   21 1
    31   17   18 ar
    32   17   31 1
    33   18   19 1
    34   19   20 1
    35   21   32 1
@<TRIPOS>MOLECULE
CHEMBL234463
   45    48     0     0     0
SMALL
USER_CHARGES

@<TRIPOS>ATOM
      1 C1          1.1825   -0.6432   -0.3293 C.ar      1 <0>        -0.0752
      2 C2          2.3713    0.0605   -0.3384 C.ar      1 <0>        -0.1459
      3 C3          2.3800    1.4095   -0.0148 C.ar      1 <0>         0.1108
      4 C4          1.1942    2.0484    0.3173 C.ar      1 <0>        -0.1432
      5 C5          0.0081    1.3403    0.3249 C.ar      1 <0>        -0.0904
      6 C6          0.0021   -0.0041    0.0020 C.ar      1 <0>        -0.0906
      7 C7         -1.2934   -0.7740    0.0107 C.3       1 <0>         0.1425
      8 H1         -2.1037   -0.1290   -0.3291 H         1 <0>         0.0818
      9 C8         -1.5889   -1.2638    1.4296 C.3       1 <0>        -0.1014
     10 H2         -1.7872   -0.3517    1.9924 H         1 <0>         0.0739
     11 C9         -0.3967   -1.8585    2.0815 C.3       1 <0>        -0.1154
     12 C10        -0.2967   -1.5105    3.5716 C.3       1 <0>        -0.1114
     13 C11        -1.2622   -2.3290    4.3373 C.3       1 <0>        -0.1213
     14 C12        -2.7223   -2.0637    3.9775 C.3       1 <0>        -0.1180
     15 C13        -3.1176   -2.8491    2.7493 C.3       1 <0>        -0.1045
     16 C14        -2.8803   -2.0252    1.4724 C.3       1 <0>        -0.0305
     17 H3         -3.6891   -1.2970    1.4129 H         1 <0>         0.0765
     18 C15        -3.0251   -2.9331    0.2767 C.ar      1 <0>        -0.1359
     19 C16        -4.0252   -3.8912    0.2858 C.ar      1 <0>        -0.1101
     20 C17        -4.1879   -4.7396   -0.7974 C.ar      1 <0>         0.0740
     21 C18        -3.3465   -4.6291   -1.8945 C.ar      1 <0>        -0.1133
     22 C19        -2.3489   -3.6762   -1.9037 C.ar      1 <0>        -0.1299
     23 C20        -2.1835   -2.8254   -0.8161 C.ar      1 <0>         0.1256
     24 O1         -1.1847   -1.9032   -0.8571 O.3       1 <0>        -0.3062
     25 O2         -5.1707   -5.6793   -0.7848 O.3       1 <0>        -0.4972
     26 O3          3.5483    2.1038   -0.0226 O.3       1 <0>        -0.4996
     27 H4          1.1746   -1.6923   -0.5856 H         1 <0>         0.1346
     28 H5          3.2932   -0.4392   -0.5969 H         1 <0>         0.1312
     29 H6          1.1985    3.0985    0.5700 H         1 <0>         0.1319
     30 H7         -0.9153    1.8373    0.5834 H         1 <0>         0.1282
     31 H8         -0.4426   -2.9424    1.9761 H         1 <0>         0.0617
     32 H9          0.4980   -1.4961    1.5752 H         1 <0>         0.0759
     33 H10         0.7138   -1.7154    3.9253 H         1 <0>         0.0662
     34 H11        -0.5235   -0.4539    3.7137 H         1 <0>         0.0611
     35 H12        -1.0455   -3.3818    4.1564 H         1 <0>         0.0598
     36 H13        -1.1238   -2.1266    5.3994 H         1 <0>         0.0574
     37 H14        -3.3576   -2.3586    4.8127 H         1 <0>         0.0646
     38 H15        -2.8569   -0.9998    3.7825 H         1 <0>         0.0633
     39 H16        -2.5197   -3.7590    2.6967 H         1 <0>         0.0679
     40 H17        -4.1722   -3.1163    2.8176 H         1 <0>         0.0685
     41 H18        -4.6806   -3.9770    1.1400 H         1 <0>         0.1323
     42 H19        -3.4719   -5.2886   -2.7404 H         1 <0>         0.1348
     43 H20        -1.6941   -3.5908   -2.7583 H         1 <0>         0.1352
     44 H21        -6.0122   -5.3733   -1.1500 H         1 <0>         0.3879
     45 H22         3.7590    2.5095   -0.8747 H         1 <0>         0.3928
@<TRIPOS>BOND
     1    1    6 ar
     2    1    2 ar
     3    1   27 1
     4    2    3 ar
     5    2   28 1
     6    3    4 ar
     7    3   26 1
     8    4    5 ar
     9    4   29 1
    10    5    6 ar
    11    5   30 1
    12    6    7 1
    13    7    8 1
    14    7   24 1
    15    7    9 1
    16    9   10 1
    17    9   16 1
    18    9   11 1
    19   11   12 1
    20   11   31 1
    21   11   32 1
    22   12   13 1
    23   12   33 1
    24   12   34 1
    25   13   14 1
    26   13   35 1
    27   13   36 1
    28   14   15 1
    29   14   37 1
    30   14   38 1
    31   15   16 1
    32   15   39 1
    33   15   40 1
    34   16   17 1
    35   16   18 1
    36   18   23 ar
    37   18   19 ar
    38   19   20 ar
    39   19   41 1
    40   20   21 ar
    41   20   25 1
    42   21   22 ar
    43   21   42 1
    44   22   23 ar
    45   22   43 1
    46   23   24 1
    47   25   44 1
    48   26   45 1
@<TRIPOS>MOLECULE
CHEMBL234462
   42    45     0     0     0
SMALL
USER_CHARGES

@<TRIPOS>ATOM
      1 C1         -0.0167    1.3784    0.0096 C.ar      1 <0>        -0.0891
      2 C2          1.1695    2.0865    0.0021 C.ar      1 <0>        -0.1448
      3 C3          2.3802    1.4093   -0.0131 C.ar      1 <0>         0.1114
      4 C4          2.3963    0.0221   -0.0206 C.ar      1 <0>        -0.1471
      5 C5          1.2074   -0.6814   -0.0130 C.ar      1 <0>        -0.0741
      6 C6          0.0021   -0.0041    0.0020 C.ar      1 <0>        -0.0932
      7 C7         -1.2934   -0.7740    0.0107 C.3       1 <0>         0.1388
      8 H1         -2.0891   -0.1604   -0.4117 H         1 <0>         0.0818
      9 C8         -1.6529   -1.1704    1.4535 C.3       1 <0>        -0.1069
     10 H2         -1.6788   -0.2868    2.0912 H         1 <0>         0.0947
     11 C9         -0.5906   -2.1528    1.9549 C.3       1 <0>        -0.1155
     12 C10        -0.9734   -2.6731    3.3403 C.3       1 <0>        -0.1175
     13 C11        -2.3138   -3.4071    3.2481 C.3       1 <0>        -0.1201
     14 C12        -3.3877   -2.4247    2.7773 C.3       1 <0>        -0.1082
     15 C13        -3.0279   -1.8354    1.4179 C.3       1 <0>        -0.0404
     16 H3         -3.7667   -1.0809    1.1477 H         1 <0>         0.0820
     17 C14        -3.0538   -2.9048    0.3609 C.ar      1 <0>        -0.1314
     18 C15        -4.0246   -3.8897    0.4214 C.ar      1 <0>        -0.1086
     19 C16        -4.0721   -4.8838   -0.5424 C.ar      1 <0>         0.0725
     20 C17        -3.1430   -4.8920   -1.5725 C.ar      1 <0>        -0.1121
     21 C18        -2.1742   -3.9119   -1.6332 C.ar      1 <0>        -0.1320
     22 C19        -2.1237   -2.9138   -0.6657 C.ar      1 <0>         0.1270
     23 O1         -1.1485   -1.9709   -0.7554 O.3       1 <0>        -0.3053
     24 O2         -5.0277   -5.8492   -0.4791 O.3       1 <0>        -0.4973
     25 O3          3.5484    2.1036   -0.0209 O.3       1 <0>        -0.4995
     26 H4         -0.9594    1.9052    0.0259 H         1 <0>         0.1289
     27 H5          1.1543    3.1664    0.0076 H         1 <0>         0.1320
     28 H6          3.3375   -0.5074   -0.0328 H         1 <0>         0.1309
     29 H7          1.2194   -1.7613   -0.0189 H         1 <0>         0.1327
     30 H8         -0.5164   -2.9905    1.2615 H         1 <0>         0.0687
     31 H9          0.3727   -1.6460    2.0122 H         1 <0>         0.0690
     32 H10        -0.2056   -3.3600    3.6964 H         1 <0>         0.0634
     33 H11        -1.0635   -1.8355    4.0320 H         1 <0>         0.0621
     34 H12        -2.2322   -4.2275    2.5351 H         1 <0>         0.0648
     35 H13        -2.5831   -3.7995    4.2287 H         1 <0>         0.0641
     36 H14        -4.3441   -2.9425    2.7049 H         1 <0>         0.0686
     37 H15        -3.4736   -1.6111    3.4976 H         1 <0>         0.0674
     38 H16        -4.7482   -3.8829    1.2231 H         1 <0>         0.1325
     39 H17        -3.1778   -5.6651   -2.3259 H         1 <0>         0.1346
     40 H18        -1.4518   -3.9192   -2.4359 H         1 <0>         0.1348
     41 H19        -5.8424   -5.6277   -0.9507 H         1 <0>         0.3877
     42 H20         3.8951    2.3001    0.8601 H         1 <0>         0.3926
@<TRIPOS>BOND
     1    1    6 ar
     2    1    2 ar
     3    1   26 1
     4    2    3 ar
     5    2   27 1
     6    3    4 ar
     7    3   25 1
     8    4    5 ar
     9    4   28 1
    10    5    6 ar
    11    5   29 1
    12    6    7 1
    13    7    8 1
    14    7   23 1
    15    7    9 1
    16    9   10 1
    17    9   15 1
    18    9   11 1
    19   11   12 1
    20   11   30 1
    21   11   31 1
    22   12   13 1
    23   12   32 1
    24   12   33 1
    25   13   14 1
    26   13   34 1
    27   13   35 1
    28   14   15 1
    29   14   36 1
    30   14   37 1
    31   15   16 1
    32   15   17 1
    33   17   22 ar
    34   17   18 ar
    35   18   19 ar
    36   18   38 1
    37   19   20 ar
    38   19   24 1
    39   20   21 ar
    40   20   39 1
    41   21   22 ar
    42   21   40 1
    43   22   23 1
    44   24   41 1
    45   25   42 1
@<TRIPOS>MOLECULE
CHEMBL234460
   32    34     0     0     0
SMALL
USER_CHARGES

@<TRIPOS>ATOM
      1 C1         -0.0167    1.3784    0.0096 C.ar      1 <0>        -0.0888
      2 C2          1.1695    2.0865    0.0021 C.ar      1 <0>        -0.1447
      3 C3          2.3802    1.4093   -0.0131 C.ar      1 <0>         0.1113
      4 C4          2.3963    0.0221   -0.0206 C.ar      1 <0>        -0.1459
      5 C5          1.2074   -0.6814   -0.0130 C.ar      1 <0>        -0.0754
      6 C6          0.0021   -0.0041    0.0020 C.ar      1 <0>        -0.0973
      7 C7         -1.2934   -0.7740    0.0107 C.3       1 <0>         0.1365
      8 H1         -2.0884   -0.1596   -0.4119 H         1 <0>         0.0833
      9 C8         -1.6523   -1.1651    1.4500 C.3       1 <0>        -0.1488
     10 C9         -3.0232   -1.8458    1.4354 C.3       1 <0>        -0.0792
     11 C10        -3.0569   -2.8968    0.3548 C.ar      1 <0>        -0.1443
     12 C11        -4.0382   -3.8729    0.4065 C.ar      1 <0>        -0.1097
     13 C12        -4.1014   -4.8522   -0.5712 C.ar      1 <0>         0.0733
     14 C13        -3.1786   -4.8548   -1.6070 C.ar      1 <0>        -0.1114
     15 C14        -2.2002   -3.8837   -1.6587 C.ar      1 <0>        -0.1302
     16 C15        -2.1340   -2.9012   -0.6759 C.ar      1 <0>         0.1257
     17 O1         -1.1481   -1.9685   -0.7585 O.3       1 <0>        -0.3071
     18 O2         -5.0658   -5.8093   -0.5155 O.3       1 <0>        -0.4971
     19 O3          3.5484    2.1036   -0.0209 O.3       1 <0>        -0.4993
     20 H2         -0.9594    1.9052    0.0259 H         1 <0>         0.1297
     21 H3          1.1543    3.1664    0.0076 H         1 <0>         0.1327
     22 H4          3.3375   -0.5074   -0.0328 H         1 <0>         0.1316
     23 H5          1.2194   -1.7613   -0.0189 H         1 <0>         0.1320
     24 H6         -0.9040   -1.8544    1.8409 H         1 <0>         0.0810
     25 H7         -1.6920   -0.2724    2.0742 H         1 <0>         0.0890
     26 H8         -3.2060   -2.3140    2.4026 H         1 <0>         0.0869
     27 H9         -3.7957   -1.1015    1.2417 H         1 <0>         0.0815
     28 H10        -4.7569   -3.8707    1.2127 H         1 <0>         0.1313
     29 H11        -3.2259   -5.6161   -2.3715 H         1 <0>         0.1360
     30 H12        -1.4823   -3.8863   -2.4655 H         1 <0>         0.1362
     31 H13        -5.8814   -5.5733   -0.9784 H         1 <0>         0.3885
     32 H14         3.8951    2.3001    0.8601 H         1 <0>         0.3929
@<TRIPOS>BOND
     1    1    6 ar
     2    1    2 ar
     3    1   20 1
     4    2    3 ar
     5    2   21 1
     6    3    4 ar
     7    3   19 1
     8    4    5 ar
     9    4   22 1
    10    5    6 ar
    11    5   23 1
    12    6    7 1
    13    7    8 1
    14    7   17 1
    15    7    9 1
    16    9   10 1
    17    9   24 1
    18    9   25 1
    19   10   11 1
    20   10   26 1
    21   10   27 1
    22   11   16 ar
    23   11   12 ar
    24   12   13 ar
    25   12   28 1
    26   13   14 ar
    27   13   18 1
    28   14   15 ar
    29   14   29 1
    30   15   16 ar
    31   15   30 1
    32   16   17 1
    33   18   31 1
    34   19   32 1
@<TRIPOS>MOLECULE
CHEMBL382873
   44    46     0     0     0
SMALL
USER_CHARGES

@<TRIPOS>ATOM
      1 C1         -0.1217    1.0963   -0.6142 C.ar      1 <0>        -0.1113
      2 C2          0.4144    1.0187    0.6582 C.ar      1 <0>        -0.1142
      3 C3          1.6540    0.4418    0.8529 C.ar      1 <0>        -0.1162
      4 C4          2.3623   -0.0609   -0.2311 C.ar      1 <0>         0.1373
      5 C5          1.8209    0.0186   -1.5079 C.ar      1 <0>        -0.0986
      6 C6          0.5808    0.5969   -1.6955 C.ar      1 <0>        -0.1087
      7 N1          3.6165   -0.6447   -0.0378 N.pl3     1 <0>        -0.9450
      8 C7          3.7222   -1.9584    0.6019 C.3       1 <0>         0.1470
      9 C8          2.8480   -2.9638   -0.1503 C.3       1 <0>        -0.1230
     10 C9          2.9584   -4.3357    0.5178 C.3       1 <0>        -0.1186
     11 C10         2.4864   -4.2354    1.9697 C.3       1 <0>        -0.1223
     12 C11         3.3606   -3.2300    2.7219 C.3       1 <0>        -0.1180
     13 C12         3.2502   -1.8581    2.0538 C.3       1 <0>        -0.1373
     14 S1          4.9838    0.1482   -0.5318 S.o2      1 <0>         2.6817
     15 O1          5.9380   -0.8527   -0.8586 O.2       1 <0>        -0.9479
     16 O2          4.5661    1.1359   -1.4641 O.2       1 <0>        -0.9423
     17 C13         5.6189    1.0121    0.8664 C.ar      1 <0>        -0.6878
     18 C14         5.2809    2.3371    1.0710 C.ar      1 <0>         0.0013
     19 C15         5.7779    3.0168    2.1662 C.ar      1 <0>        -0.1660
     20 C16         6.6164    2.3686    3.0614 C.ar      1 <0>         0.1670
     21 C17         6.9537    1.0390    2.8541 C.ar      1 <0>        -0.1661
     22 C18         6.4499    0.3623    1.7602 C.ar      1 <0>        -0.0029
     23 O3          7.1070    3.0352    4.1393 O.3       1 <0>        -0.4968
     24 H1         -1.0932    1.5439   -0.7631 H         1 <0>         0.1260
     25 H2         -0.1367    1.4101    1.5005 H         1 <0>         0.1265
     26 H3          2.0722    0.3818    1.8468 H         1 <0>         0.1283
     27 H4          2.3692   -0.3709   -2.3529 H         1 <0>         0.1256
     28 H5          0.1593    0.6591   -2.6879 H         1 <0>         0.1289
     29 H6          4.7600   -2.2910    0.5794 H         1 <0>         0.1035
     30 H7          1.8102   -2.6312   -0.1278 H         1 <0>         0.0719
     31 H8          3.1843   -3.0352   -1.1847 H         1 <0>         0.0696
     32 H9          2.3356   -5.0520   -0.0181 H         1 <0>         0.0682
     33 H10         3.9962   -4.6684    0.4953 H         1 <0>         0.0663
     34 H11         1.4486   -3.9028    1.9922 H         1 <0>         0.0631
     35 H12         2.5650   -5.2129    2.4457 H         1 <0>         0.0647
     36 H13         3.0243   -3.1586    3.7563 H         1 <0>         0.0669
     37 H14         4.3984   -3.5626    2.6994 H         1 <0>         0.0652
     38 H15         3.8730   -1.1418    2.5897 H         1 <0>         0.0657
     39 H16         2.2124   -1.5255    2.0763 H         1 <0>         0.0774
     40 H17         4.6281    2.8412    0.3738 H         1 <0>         0.1458
     41 H18         5.5141    4.0519    2.3252 H         1 <0>         0.1409
     42 H19         7.6064    0.5322    3.5496 H         1 <0>         0.1408
     43 H20         6.7087   -0.6741    1.6008 H         1 <0>         0.1425
     44 H21         6.5477    2.9765    4.9260 H         1 <0>         0.4008
@<TRIPOS>BOND
     1    1    6 ar
     2    1    2 ar
     3    1   24 1
     4    2    3 ar
     5    2   25 1
     6    3    4 ar
     7    3   26 1
     8    4    5 ar
     9    4    7 1
    10    5    6 ar
    11    5   27 1
    12    6   28 1
    13    7    8 1
    14    7   14 1
    15    8   13 1
    16    8    9 1
    17    8   29 1
    18    9   10 1
    19    9   30 1
    20    9   31 1
    21   10   11 1
    22   10   32 1
    23   10   33 1
    24   11   12 1
    25   11   34 1
    26   11   35 1
    27   12   13 1
    28   12   36 1
    29   12   37 1
    30   13   38 1
    31   13   39 1
    32   14   15 2
    33   14   16 2
    34   14   17 1
    35   17   22 ar
    36   17   18 ar
    37   18   19 ar
    38   18   40 1
    39   19   20 ar
    40   19   41 1
    41   20   21 ar
    42   20   23 1
    43   21   22 ar
    44   21   42 1
    45   22   43 1
    46   23   44 1
@<TRIPOS>MOLECULE
CHEMBL203860
   41    43     0     0     0
SMALL
USER_CHARGES

@<TRIPOS>ATOM
      1 C1         -0.1032    0.5883   -0.7234 C.ar      1 <0>        -0.1115
      2 C2          0.9449    1.4881   -0.7760 C.ar      1 <0>        -0.1179
      3 C3          2.2419    1.0506   -0.5829 C.ar      1 <0>        -0.1124
      4 C4          2.4907   -0.2867   -0.3365 C.ar      1 <0>        -0.1132
      5 C5          1.4426   -1.1863   -0.2830 C.ar      1 <0>        -0.0944
      6 C6          0.1457   -0.7490   -0.4776 C.ar      1 <0>        -0.1191
      7 C7          3.9048   -0.7638   -0.1269 C.3       1 <0>         0.1415
      8 N1          4.1905   -0.8288    1.3085 N.pl3     1 <0>        -0.9309
      9 C8          3.6855   -1.8823    2.0741 C.ar      1 <0>         0.1735
     10 C9          3.4478   -1.7050    3.4312 C.ar      1 <0>        -0.1592
     11 C10         2.9480   -2.7486    4.1851 C.ar      1 <0>        -0.0822
     12 C11         2.6847   -3.9691    3.5906 C.ar      1 <0>        -0.1401
     13 C12         2.9202   -4.1489    2.2399 C.ar      1 <0>        -0.0897
     14 C13         3.4145   -3.1078    1.4789 C.ar      1 <0>        -0.1467
     15 S1          5.1121    0.3467    2.0234 S.o2      1 <0>         2.6823
     16 O1          5.6838   -0.2365    3.1862 O.2       1 <0>        -0.9377
     17 O2          5.9026    0.9252    0.9939 O.2       1 <0>        -0.9428
     18 C14         4.0114    1.6049    2.5802 C.ar      1 <0>        -0.6876
     19 C15         3.5844    2.5857    1.7041 C.ar      1 <0>         0.0017
     20 C16         2.7219    3.5735    2.1384 C.ar      1 <0>        -0.1623
     21 C17         2.2837    3.5806    3.4547 C.ar      1 <0>         0.1703
     22 C18         2.7132    2.5952    4.3317 C.ar      1 <0>        -0.1633
     23 C19         3.5717    1.6066    3.8911 C.ar      1 <0>        -0.0040
     24 O3          1.4355    4.5516    3.8844 O.3       1 <0>        -0.4964
     25 H1         -1.1169    0.9309   -0.8699 H         1 <0>         0.1225
     26 H2          0.7505    2.5329   -0.9685 H         1 <0>         0.1234
     27 H3          3.0608    1.7535   -0.6247 H         1 <0>         0.1224
     28 H4          1.6371   -2.2312   -0.0909 H         1 <0>         0.1254
     29 H5         -0.6731   -1.4520   -0.4361 H         1 <0>         0.1235
     30 H6          4.0228   -1.7544   -0.5661 H         1 <0>         0.1024
     31 H7          4.5968   -0.0700   -0.6041 H         1 <0>         0.1137
     32 H8          3.6539   -0.7523    3.8962 H         1 <0>         0.1243
     33 H9          2.7630   -2.6115    5.2403 H         1 <0>         0.1291
     34 H10         2.2946   -4.7837    4.1827 H         1 <0>         0.1256
     35 H11         2.7134   -5.1034    1.7787 H         1 <0>         0.1281
     36 H12         3.5939   -3.2475    0.4231 H         1 <0>         0.1291
     37 H13         3.9258    2.5797    0.6795 H         1 <0>         0.1416
     38 H14         2.3892    4.3397    1.4539 H         1 <0>         0.1410
     39 H15         2.3736    2.5986    5.3569 H         1 <0>         0.1419
     40 H16         3.9030    0.8367    4.5723 H         1 <0>         0.1466
     41 H17         0.4998    4.3301    3.7818 H         1 <0>         0.4012
@<TRIPOS>BOND
     1    1    6 ar
     2    1    2 ar
     3    1   25 1
     4    2    3 ar
     5    2   26 1
     6    3    4 ar
     7    3   27 1
     8    4    5 ar
     9    4    7 1
    10    5    6 ar
    11    5   28 1
    12    6   29 1
    13    7    8 1
    14    7   30 1
    15    7   31 1
    16    8    9 1
    17    8   15 1
    18    9   14 ar
    19    9   10 ar
    20   10   11 ar
    21   10   32 1
    22   11   12 ar
    23   11   33 1
    24   12   13 ar
    25   12   34 1
    26   13   14 ar
    27   13   35 1
    28   14   36 1
    29   15   16 2
    30   15   17 2
    31   15   18 1
    32   18   23 ar
    33   18   19 ar
    34   19   20 ar
    35   19   37 1
    36   20   21 ar
    37   20   38 1
    38   21   22 ar
    39   21   24 1
    40   22   23 ar
    41   22   39 1
    42   23   40 1
    43   24   41 1
@<TRIPOS>MOLECULE
CHEMBL173397
   66    71     0     0     0
SMALL
USER_CHARGES

@<TRIPOS>ATOM
      1 C1          0.0438    1.0466    0.0482 C.ar      1 <0>        -0.0761
      2 C2          1.1882    1.8192    0.0061 C.ar      1 <0>        -0.1374
      3 C3          2.4352    1.2115    0.0270 C.ar      1 <0>         0.1125
      4 C4          2.5294   -0.1712    0.0902 C.ar      1 <0>        -0.1975
      5 C5          1.3820   -0.9394    0.1320 C.ar      1 <0>        -0.0568
      6 C6          0.1404   -0.3313    0.1110 C.ar      1 <0>        -0.0778
      7 C7         -1.1097   -1.1716    0.1572 C.3       1 <0>         0.0264
      8 C8         -1.0930   -2.0627    1.3641 C.ar      1 <0>        -0.0757
      9 C9         -1.0606   -1.7708    2.7076 C.ar      1 <0>        -0.1149
     10 C10        -1.0526   -2.8527    3.5913 C.ar      1 <0>         0.1106
     11 C11        -1.0762   -4.1619    3.1365 C.ar      1 <0>        -0.1438
     12 C12        -1.1091   -4.4677    1.7872 C.ar      1 <0>        -0.0731
     13 C13        -1.1175   -3.3903    0.8892 C.ar      1 <0>        -0.0693
     14 C14        -1.1500   -3.3794   -0.5652 C.2       1 <0>        -0.0747
     15 C15        -1.1555   -2.1011   -1.0201 C.2       1 <0>        -0.0857
     16 C16        -1.1841   -1.8052   -2.4592 C.ar      1 <0>        -0.0387
     17 C17        -0.8839   -0.5413   -2.9588 C.ar      1 <0>        -0.0850
     18 C18        -0.8978   -0.3258   -4.3216 C.ar      1 <0>        -0.1489
     19 C19        -1.2074   -1.3689   -5.1853 C.ar      1 <0>         0.1149
     20 C20        -1.5180   -2.6275   -4.6879 C.ar      1 <0>        -0.1420
     21 C21        -1.5225   -2.8523   -3.3277 C.ar      1 <0>        -0.0515
     22 C22        -1.9289   -4.1935   -2.7816 C.3       1 <0>        -0.0820
     23 C23        -1.1581   -4.5553   -1.5142 C.3       1 <0>        -0.0675
     24 O1         -1.2068   -1.1557   -6.5271 O.3       1 <0>        -0.4980
     25 O2         -1.0203   -2.6160    4.9288 O.3       1 <0>        -0.5008
     26 O3          3.5625    1.9693   -0.0147 O.3       1 <0>        -0.3282
     27 C24         4.8117    1.2758    0.0102 C.3       1 <0>         0.0257
     28 C25         5.9580    2.2878   -0.0434 C.3       1 <0>        -0.0007
     29 N1          5.9254    3.1288    1.1606 N.4       1 <0>        -0.3839
     30 C26         6.9247    4.1968    1.0368 C.3       1 <0>        -0.0071
     31 C27         6.8396    5.1234    2.2516 C.3       1 <0>        -0.1466
     32 C28         7.1096    4.3145    3.5236 C.3       1 <0>        -0.1389
     33 C29         6.1082    3.1588    3.6040 C.3       1 <0>        -0.1453
     34 C30         6.2203    2.3050    2.3391 C.3       1 <0>        -0.0132
     35 H1         -0.9271    1.5194    0.0364 H         1 <0>         0.1374
     36 H2          1.1123    2.8954   -0.0434 H         1 <0>         0.1345
     37 H3          3.4990   -0.6467    0.1062 H         1 <0>         0.1268
     38 H4          1.4548   -2.0158    0.1812 H         1 <0>         0.1275
     39 H5         -1.9931   -0.5333    0.1693 H         1 <0>         0.1146
     40 H6         -1.0419   -0.7513    3.0634 H         1 <0>         0.1359
     41 H7         -1.0685   -4.9670    3.8563 H         1 <0>         0.1312
     42 H8         -1.1271   -5.4905    1.4410 H         1 <0>         0.1381
     43 H9         -0.6413    0.2661   -2.2837 H         1 <0>         0.1276
     44 H10        -0.6685    0.6529   -4.7165 H         1 <0>         0.1303
     45 H11        -1.7565   -3.4320   -5.3678 H         1 <0>         0.1331
     46 H12        -2.9948   -4.1752   -2.5547 H         1 <0>         0.0840
     47 H13        -1.7427   -4.9552   -3.5388 H         1 <0>         0.0852
     48 H14        -0.1328   -4.8165   -1.7760 H         1 <0>         0.0817
     49 H15        -1.6357   -5.4076   -1.0308 H         1 <0>         0.0850
     50 H16        -0.3528   -1.3183   -6.9508 H         1 <0>         0.3927
     51 H17        -1.8941   -2.5380    5.3356 H         1 <0>         0.3945
     52 H18         4.8850    0.6921    0.9278 H         1 <0>         0.0860
     53 H19         4.8746    0.6096   -0.8502 H         1 <0>         0.1088
     54 H20         6.9090    1.7574   -0.0905 H         1 <0>         0.1486
     55 H21         5.8477    2.9152   -0.9279 H         1 <0>         0.1425
     56 H22         7.9209    3.7574    0.9846 H         1 <0>         0.1290
     57 H23         6.7332    4.7695    0.1294 H         1 <0>         0.1309
     58 H24         7.5835    5.9146    2.1586 H         1 <0>         0.1130
     59 H25         5.8439    5.5635    2.3046 H         1 <0>         0.0880
     60 H26         8.1239    3.9165    3.4940 H         1 <0>         0.0820
     61 H27         6.9946    4.9579    4.3959 H         1 <0>         0.0947
     62 H28         6.3292    2.5457    4.4777 H         1 <0>         0.1123
     63 H29         5.0972    3.5581    3.6851 H         1 <0>         0.0879
     64 H30         5.5088    1.4810    2.3932 H         1 <0>         0.1273
     65 H31         7.2315    1.9059    2.2591 H         1 <0>         0.1301
     66 H32         5.0086    3.5385    1.2588 H         1 <0>         0.4294
@<TRIPOS>BOND
     1    1    6 ar
     2    1    2 ar
     3    1   35 1
     4    2    3 ar
     5    2   36 1
     6    3    4 ar
     7    3   26 1
     8    4    5 ar
     9    4   37 1
    10    5    6 ar
    11    5   38 1
    12    6    7 1
    13    7   15 1
    14    7    8 1
    15    7   39 1
    16    8   13 ar
    17    8    9 ar
    18    9   10 ar
    19    9   40 1
    20   10   11 ar
    21   10   25 1
    22   11   12 ar
    23   11   41 1
    24   12   13 ar
    25   12   42 1
    26   13   14 1
    27   14   23 1
    28   14   15 2
    29   15   16 1
    30   16   21 ar
    31   16   17 ar
    32   17   18 ar
    33   17   43 1
    34   18   19 ar
    35   18   44 1
    36   19   20 ar
    37   19   24 1
    38   20   21 ar
    39   20   45 1
    40   21   22 1
    41   22   23 1
    42   22   46 1
    43   22   47 1
    44   23   48 1
    45   23   49 1
    46   24   50 1
    47   25   51 1
    48   26   27 1
    49   27   28 1
    50   27   52 1
    51   27   53 1
    52   28   29 1
    53   28   54 1
    54   28   55 1
    55   29   34 1
    56   29   30 1
    57   29   66 1
    58   30   31 1
    59   30   56 1
    60   30   57 1
    61   31   32 1
    62   31   58 1
    63   31   59 1
    64   32   33 1
    65   32   60 1
    66   32   61 1
    67   33   34 1
    68   33   62 1
    69   33   63 1
    70   34   64 1
    71   34   65 1
@<TRIPOS>MOLECULE
CHEMBL173397__1
   66    71     0     0     0
SMALL
USER_CHARGES

@<TRIPOS>ATOM
      1 C1          0.0438    1.0466    0.0482 C.ar      1 <0>        -0.0734
      2 C2          1.1882    1.8192    0.0061 C.ar      1 <0>        -0.1371
      3 C3          2.4352    1.2115    0.0270 C.ar      1 <0>         0.1121
      4 C4          2.5294   -0.1712    0.0902 C.ar      1 <0>        -0.1986
      5 C5          1.3820   -0.9394    0.1320 C.ar      1 <0>        -0.0577
      6 C6          0.1404   -0.3313    0.1110 C.ar      1 <0>        -0.0769
      7 C7         -1.1097   -1.1716    0.1572 C.3       1 <0>         0.0272
      8 C8         -1.1070   -2.1699   -0.9628 C.ar      1 <0>        -0.0753
      9 C9         -1.0763   -2.0029   -2.3275 C.ar      1 <0>        -0.1146
     10 C10        -1.0840   -3.1613   -3.1081 C.ar      1 <0>         0.1123
     11 C11        -1.1207   -4.4229   -2.5350 C.ar      1 <0>        -0.1440
     12 C12        -1.1516   -4.6031   -1.1633 C.ar      1 <0>        -0.0726
     13 C13        -1.1442   -3.4479   -0.3679 C.ar      1 <0>        -0.0717
     14 C14        -1.1693   -3.3032    1.0794 C.2       1 <0>        -0.0708
     15 C15        -1.1408   -1.9890    1.4154 C.2       1 <0>        -0.0896
     16 C16        -1.1601   -1.5619    2.8214 C.ar      1 <0>        -0.0345
     17 C17        -1.4390   -0.2491    3.1901 C.ar      1 <0>        -0.0839
     18 C18        -1.4725    0.0911    4.5269 C.ar      1 <0>        -0.1475
     19 C19        -1.2313   -0.8758    5.4947 C.ar      1 <0>         0.1125
     20 C20        -0.9420   -2.1834    5.1281 C.ar      1 <0>        -0.1420
     21 C21        -0.8905   -2.5333    3.7956 C.ar      1 <0>        -0.0540
     22 C22        -0.5062   -3.9303    3.3922 C.3       1 <0>        -0.0790
     23 C23        -1.2370   -4.3859    2.1314 C.3       1 <0>        -0.0699
     24 O1         -1.2785   -0.5393    6.8102 O.3       1 <0>        -0.5008
     25 O2         -1.0553   -3.0487   -4.4618 O.3       1 <0>        -0.4975
     26 O3          3.5625    1.9693   -0.0147 O.3       1 <0>        -0.3284
     27 C24         4.8117    1.2758    0.0102 C.3       1 <0>         0.0259
     28 C25         5.9580    2.2878   -0.0434 C.3       1 <0>        -0.0007
     29 N1          5.9254    3.1288    1.1606 N.4       1 <0>        -0.3839
     30 C26         6.9247    4.1968    1.0368 C.3       1 <0>        -0.0070
     31 C27         6.8396    5.1234    2.2516 C.3       1 <0>        -0.1466
     32 C28         7.1096    4.3145    3.5236 C.3       1 <0>        -0.1388
     33 C29         6.1082    3.1588    3.6040 C.3       1 <0>        -0.1454
     34 C30         6.2203    2.3050    2.3391 C.3       1 <0>        -0.0132
     35 H1         -0.9271    1.5194    0.0364 H         1 <0>         0.1362
     36 H2          1.1123    2.8954   -0.0434 H         1 <0>         0.1339
     37 H3          3.4990   -0.6467    0.1062 H         1 <0>         0.1263
     38 H4          1.4548   -2.0158    0.1812 H         1 <0>         0.1270
     39 H5         -1.9936   -0.5366    0.0972 H         1 <0>         0.1146
     40 H6         -1.0479   -1.0206   -2.7754 H         1 <0>         0.1368
     41 H7         -1.1257   -5.2907   -3.1779 H         1 <0>         0.1316
     42 H8         -1.1797   -5.5896   -0.7246 H         1 <0>         0.1380
     43 H9         -1.6277    0.4989    2.4343 H         1 <0>         0.1269
     44 H10        -1.6856    1.1084    4.8205 H         1 <0>         0.1308
     45 H11        -0.7568   -2.9279    5.8883 H         1 <0>         0.1321
     46 H12         0.5680   -3.9635    3.2103 H         1 <0>         0.0796
     47 H13        -0.7468   -4.6130    4.2072 H         1 <0>         0.0848
     48 H14        -2.2799   -4.5925    2.3720 H         1 <0>         0.0848
     49 H15        -0.7683   -5.2925    1.7488 H         1 <0>         0.0847
     50 H16        -2.1535   -0.6376    7.2102 H         1 <0>         0.3951
     51 H17        -0.1639   -3.0336   -4.8364 H         1 <0>         0.3919
     52 H18         4.8850    0.6921    0.9278 H         1 <0>         0.0857
     53 H19         4.8746    0.6096   -0.8502 H         1 <0>         0.1086
     54 H20         6.9090    1.7574   -0.0905 H         1 <0>         0.1486
     55 H21         5.8477    2.9152   -0.9279 H         1 <0>         0.1425
     56 H22         7.9209    3.7574    0.9846 H         1 <0>         0.1290
     57 H23         6.7332    4.7695    0.1294 H         1 <0>         0.1309
     58 H24         7.5835    5.9146    2.1586 H         1 <0>         0.1130
     59 H25         5.8439    5.5635    2.3046 H         1 <0>         0.0880
     60 H26         8.1239    3.9165    3.4940 H         1 <0>         0.0820
     61 H27         6.9946    4.9579    4.3959 H         1 <0>         0.0948
     62 H28         6.3292    2.5457    4.4777 H         1 <0>         0.1123
     63 H29         5.0972    3.5581    3.6851 H         1 <0>         0.0880
     64 H30         5.5088    1.4810    2.3932 H         1 <0>         0.1271
     65 H31         7.2315    1.9059    2.2591 H         1 <0>         0.1301
     66 H32         5.0086    3.5385    1.2588 H         1 <0>         0.4295
@<TRIPOS>BOND
     1    1    6 ar
     2    1    2 ar
     3    1   35 1
     4    2    3 ar
     5    2   36 1
     6    3    4 ar
     7    3   26 1
     8    4    5 ar
     9    4   37 1
    10    5    6 ar
    11    5   38 1
    12    6    7 1
    13    7   15 1
    14    7    8 1
    15    7   39 1
    16    8   13 ar
    17    8    9 ar
    18    9   10 ar
    19    9   40 1
    20   10   11 ar
    21   10   25 1
    22   11   12 ar
    23   11   41 1
    24   12   13 ar
    25   12   42 1
    26   13   14 1
    27   14   23 1
    28   14   15 2
    29   15   16 1
    30   16   21 ar
    31   16   17 ar
    32   17   18 ar
    33   17   43 1
    34   18   19 ar
    35   18   44 1
    36   19   20 ar
    37   19   24 1
    38   20   21 ar
    39   20   45 1
    40   21   22 1
    41   22   23 1
    42   22   46 1
    43   22   47 1
    44   23   48 1
    45   23   49 1
    46   24   50 1
    47   25   51 1
    48   26   27 1
    49   27   28 1
    50   27   52 1
    51   27   53 1
    52   28   29 1
    53   28   54 1
    54   28   55 1
    55   29   34 1
    56   29   30 1
    57   29   66 1
    58   30   31 1
    59   30   56 1
    60   30   57 1
    61   31   32 1
    62   31   58 1
    63   31   59 1
    64   32   33 1
    65   32   60 1
    66   32   61 1
    67   33   34 1
    68   33   62 1
    69   33   63 1
    70   34   64 1
    71   34   65 1
@<TRIPOS>MOLECULE
CHEMBL312186
   29    32     0     0     0
SMALL
USER_CHARGES

@<TRIPOS>ATOM
      1 C1         -0.0167    1.3831    0.0096 C.ar      1 <0>        -0.1443
      2 C2          1.1519    2.1259    0.0025 C.ar      1 <0>        -0.0440
      3 C3          2.3522    1.4184   -0.0129 C.ar      1 <0>        -0.0760
      4 C4          2.3761    0.0012   -0.0186 C.ar      1 <0>         0.0620
      5 C5          1.1908   -0.7250   -0.0124 C.ar      1 <0>        -0.1172
      6 C6          0.0021   -0.0041    0.0020 C.ar      1 <0>         0.1326
      7 O1         -1.1779   -0.6791    0.0091 O.3       1 <0>        -0.4913
      8 O2          3.6560   -0.4000   -0.0298 O.3       1 <0>        -0.1534
      9 C7          4.4963    0.6425   -0.0358 C.2       1 <0>         0.2858
     10 C8          3.7440    1.8205   -0.0284 C.2       1 <0>        -0.2966
     11 C9          4.4050    3.1277   -0.0454 C.2       1 <0>         0.4689
     12 O3          3.8125    4.1764    0.1458 O.2       1 <0>        -0.4321
     13 C10         5.8604    3.0577   -0.3159 C.ar      1 <0>        -0.2500
     14 C11         6.5842    4.2284   -0.5784 C.ar      1 <0>         0.2188
     15 C12         7.9381    4.1487   -0.8448 C.ar      1 <0>        -0.1942
     16 C13         8.5727    2.9112   -0.8469 C.ar      1 <0>         0.1936
     17 C14         7.8639    1.7522   -0.5812 C.ar      1 <0>        -0.1734
     18 C15         6.5007    1.8082   -0.3095 C.ar      1 <0>         0.1839
     19 O4          5.8419    0.6549   -0.0452 O.3       1 <0>        -0.1829
     20 O5          9.9019    2.8390   -1.1130 O.3       1 <0>        -0.4853
     21 O6          5.9597    5.4331   -0.5715 O.3       1 <0>        -0.4727
     22 H1         -0.9667    1.8965    0.0260 H         1 <0>         0.1417
     23 H2          1.1339    3.2058    0.0082 H         1 <0>         0.1511
     24 H3          1.1932   -1.8050   -0.0183 H         1 <0>         0.1533
     25 H4         -1.5273   -0.8696   -0.8722 H         1 <0>         0.3971
     26 H5          8.5025    5.0462   -1.0507 H         1 <0>         0.1547
     27 H6          8.3720    0.7992   -0.5849 H         1 <0>         0.1577
     28 H7         10.4642    2.9075   -0.3293 H         1 <0>         0.4057
     29 H8          5.9529    5.8678    0.2923 H         1 <0>         0.4067
@<TRIPOS>BOND
     1    1    6 ar
     2    1    2 ar
     3    1   22 1
     4    2    3 ar
     5    2   23 1
     6    3   10 1
     7    3    4 ar
     8    4    5 ar
     9    4    8 1
    10    5    6 ar
    11    5   24 1
    12    6    7 1
    13    7   25 1
    14    8    9 1
    15    9   19 1
    16    9   10 2
    17   10   11 1
    18   11   12 2
    19   11   13 1
    20   13   18 ar
    21   13   14 ar
    22   14   15 ar
    23   14   21 1
    24   15   16 ar
    25   15   26 1
    26   16   17 ar
    27   16   20 1
    28   17   18 ar
    29   17   27 1
    30   18   19 1
    31   20   28 1
    32   21   29 1
@<TRIPOS>MOLECULE
CHEMBL44940
   67    72     0     0     0
SMALL
USER_CHARGES

@<TRIPOS>ATOM
      1 C1          8.2449    1.6897    5.3605 C.ar      1 <0>        -0.1157
      2 C2          8.1185    2.1541    4.0535 C.ar      1 <0>        -0.1017
      3 C3          7.4228    1.4426    3.1217 C.ar      1 <0>        -0.1178
      4 C4          6.8266    0.2284    3.4818 C.ar      1 <0>        -0.0263
      5 C5          6.9532   -0.2469    4.8101 C.ar      1 <0>        -0.0536
      6 C6          7.6778    0.5130    5.7446 C.ar      1 <0>        -0.0998
      7 C7          6.3542   -1.4665    5.1674 C.ar      1 <0>        -0.0835
      8 C8          5.6564   -2.1926    4.2510 C.ar      1 <0>        -0.1189
      9 C9          5.5070   -1.7662    2.9389 C.ar      1 <0>        -0.0739
     10 C10         6.0718   -0.5682    2.5162 C.ar      1 <0>        -0.0299
     11 C11         5.9145   -0.1127    1.1258 C.2       1 <0>        -0.0513
     12 C12         6.1225   -0.8314   -0.0457 C.2       1 <0>        -0.1615
     13 C13         5.8948   -0.1462   -1.3198 C.ar      1 <0>        -0.0744
     14 C14         6.0389   -0.6625   -2.6277 C.ar      1 <0>        -0.0602
     15 C15         5.7866    0.1126   -3.7162 C.ar      1 <0>        -0.1357
     16 C16         5.3785    1.4369   -3.5834 C.ar      1 <0>         0.1392
     17 C17         5.2261    1.9766   -2.3161 C.ar      1 <0>        -0.1007
     18 C18         5.4811    1.1951   -1.2086 C.ar      1 <0>        -0.1041
     19 S1          5.4041    1.4905    0.5392 S.3       1 <0>         0.0994
     20 O1          5.1324    2.1931   -4.6857 O.3       1 <0>        -0.4905
     21 C19         6.5557   -2.2284   -0.0072 C.2       1 <0>         0.4634
     22 O2          5.7314   -3.1234   -0.0629 O.2       1 <0>        -0.4301
     23 C20         7.9925   -2.5533    0.0994 C.ar      1 <0>        -0.1822
     24 C21         8.9304   -1.5324    0.2751 C.ar      1 <0>        -0.0179
     25 C22        10.2692   -1.8395    0.3740 C.ar      1 <0>        -0.1520
     26 C23        10.6881   -3.1627    0.2988 C.ar      1 <0>         0.1480
     27 C24         9.7583   -4.1810    0.1236 C.ar      1 <0>        -0.2157
     28 C25         8.4171   -3.8828    0.0305 C.ar      1 <0>        -0.0168
     29 O3         12.0085   -3.4612    0.3962 O.3       1 <0>        -0.3241
     30 C26        12.3697   -4.8412    0.3107 C.3       1 <0>         0.0229
     31 C27        13.8879   -4.9800    0.4404 C.3       1 <0>        -0.0009
     32 N1         14.3096   -4.5220    1.7709 N.4       1 <0>        -0.3847
     33 C28        15.7757   -4.5063    1.8394 C.3       1 <0>        -0.0070
     34 C29        16.2209   -3.9532    3.1949 C.3       1 <0>        -0.1467
     35 C30        15.6656   -4.8433    4.3106 C.3       1 <0>        -0.1389
     36 C31        14.1410   -4.9120    4.1842 C.3       1 <0>        -0.1454
     37 C32        13.7729   -5.4296    2.7921 C.3       1 <0>        -0.0135
     38 H1          8.8050    2.2696    6.0791 H         1 <0>         0.1274
     39 H2          8.5777    3.0909    3.7744 H         1 <0>         0.1281
     40 H3          7.3318    1.8138    2.1115 H         1 <0>         0.1301
     41 H4          7.7844    0.1652    6.7615 H         1 <0>         0.1313
     42 H5          6.4486   -1.8320    6.1792 H         1 <0>         0.1321
     43 H6          5.2069   -3.1268    4.5538 H         1 <0>         0.1312
     44 H7          4.9465   -2.3698    2.2404 H         1 <0>         0.1313
     45 H8          6.3540   -1.6864   -2.7643 H         1 <0>         0.1267
     46 H9          5.9056   -0.3077   -4.7040 H         1 <0>         0.1392
     47 H10         4.9102    3.0024   -2.1965 H         1 <0>         0.1434
     48 H11         4.2172    2.1509   -4.9953 H         1 <0>         0.3999
     49 H12         8.6059   -0.5040    0.3329 H         1 <0>         0.1403
     50 H13        10.9947   -1.0511    0.5098 H         1 <0>         0.1405
     51 H14        10.0878   -5.2079    0.0653 H         1 <0>         0.1355
     52 H15         7.6948   -4.6750   -0.1004 H         1 <0>         0.1434
     53 H16        11.8843   -5.3943    1.1148 H         1 <0>         0.0891
     54 H17        12.0491   -5.2418   -0.6509 H         1 <0>         0.1125
     55 H18        14.1697   -6.0248    0.3096 H         1 <0>         0.1503
     56 H19        14.3747   -4.3740   -0.3237 H         1 <0>         0.1435
     57 H20        16.1554   -5.5209    1.7191 H         1 <0>         0.1294
     58 H21        16.1695   -3.8751    1.0429 H         1 <0>         0.1312
     59 H22        17.3097   -3.9441    3.2445 H         1 <0>         0.1133
     60 H23        15.8419   -2.9385    3.3162 H         1 <0>         0.0880
     61 H24        16.0844   -5.8455    4.2198 H         1 <0>         0.0822
     62 H25        15.9324   -4.4219    5.2798 H         1 <0>         0.0949
     63 H26        13.7432   -5.5882    4.9409 H         1 <0>         0.1125
     64 H27        13.7188   -3.9171    4.3260 H         1 <0>         0.0879
     65 H28        12.6880   -5.4799    2.6988 H         1 <0>         0.1271
     66 H29        14.1953   -6.4245    2.6514 H         1 <0>         0.1308
     67 H30        13.9574   -3.5902    1.9320 H         1 <0>         0.4294
@<TRIPOS>BOND
     1    1    6 ar
     2    1    2 ar
     3    1   38 1
     4    2    3 ar
     5    2   39 1
     6    3    4 ar
     7    3   40 1
     8    4   10 ar
     9    4    5 ar
    10    5    6 ar
    11    5    7 ar
    12    6   41 1
    13    7    8 ar
    14    7   42 1
    15    8    9 ar
    16    8   43 1
    17    9   10 ar
    18    9   44 1
    19   10   11 1
    20   11   19 1
    21   11   12 2
    22   12   13 1
    23   12   21 1
    24   13   18 ar
    25   13   14 ar
    26   14   15 ar
    27   14   45 1
    28   15   16 ar
    29   15   46 1
    30   16   17 ar
    31   16   20 1
    32   17   18 ar
    33   17   47 1
    34   18   19 1
    35   20   48 1
    36   21   22 2
    37   21   23 1
    38   23   28 ar
    39   23   24 ar
    40   24   25 ar
    41   24   49 1
    42   25   26 ar
    43   25   50 1
    44   26   27 ar
    45   26   29 1
    46   27   28 ar
    47   27   51 1
    48   28   52 1
    49   29   30 1
    50   30   31 1
    51   30   53 1
    52   30   54 1
    53   31   32 1
    54   31   55 1
    55   31   56 1
    56   32   37 1
    57   32   33 1
    58   32   67 1
    59   33   34 1
    60   33   57 1
    61   33   58 1
    62   34   35 1
    63   34   59 1
    64   34   60 1
    65   35   36 1
    66   35   61 1
    67   35   62 1
    68   36   37 1
    69   36   63 1
    70   36   64 1
    71   37   65 1
    72   37   66 1
@<TRIPOS>MOLECULE
CHEMBL296226
   67    72     0     0     0
SMALL
USER_CHARGES

@<TRIPOS>ATOM
      1 C1          4.1002   -3.9597   -7.4915 C.ar      1 <0>        -0.1074
      2 C2          4.4585   -2.6737   -7.0916 C.ar      1 <0>        -0.1138
      3 C3          4.8385   -2.4196   -5.8098 C.ar      1 <0>        -0.1022
      4 C4          4.8706   -3.4680   -4.8724 C.ar      1 <0>        -0.0529
      5 C5          5.2568   -3.2404   -3.5434 C.ar      1 <0>        -0.0706
      6 C6          5.2756   -4.2990   -2.6484 C.ar      1 <0>        -0.0265
      7 C7          4.9114   -5.5932   -3.0657 C.ar      1 <0>        -0.0965
      8 C8          4.5353   -5.8305   -4.3475 C.ar      1 <0>        -0.0971
      9 C9          4.5055   -4.7765   -5.2796 C.ar      1 <0>        -0.0406
     10 C10         4.1195   -4.9988   -6.6118 C.ar      1 <0>        -0.1089
     11 C11         5.6806   -4.0678   -1.2493 C.2       1 <0>        -0.0564
     12 C12         5.0502   -4.4955   -0.0885 C.2       1 <0>        -0.1628
     13 C13         5.6563   -4.1338    1.1949 C.ar      1 <0>        -0.0744
     14 C14         5.2032   -4.4504    2.4956 C.ar      1 <0>        -0.0605
     15 C15         5.8877   -4.0337    3.5944 C.ar      1 <0>        -0.1358
     16 C16         7.0549   -3.2838    3.4791 C.ar      1 <0>         0.1389
     17 C17         7.5291   -2.9551    2.2192 C.ar      1 <0>        -0.1008
     18 C18         6.8384   -3.3749    1.1015 C.ar      1 <0>        -0.1021
     19 S1          7.1006   -3.1790   -0.6423 S.3       1 <0>         0.0993
     20 O1          7.7224   -2.8777    4.5913 O.3       1 <0>        -0.4905
     21 C19         3.8177   -5.2830   -0.1455 C.2       1 <0>         0.4639
     22 O2          3.8694   -6.4990   -0.1010 O.2       1 <0>        -0.4303
     23 C20         2.5114   -4.6030   -0.2570 C.ar      1 <0>        -0.1816
     24 C21         2.4551   -3.2163   -0.4202 C.ar      1 <0>        -0.0190
     25 C22         1.2351   -2.5861   -0.5242 C.ar      1 <0>        -0.1524
     26 C23         0.0607   -3.3274   -0.4667 C.ar      1 <0>         0.1477
     27 C24         0.1124   -4.7068   -0.3040 C.ar      1 <0>        -0.2156
     28 C25         1.3286   -5.3453   -0.2054 C.ar      1 <0>        -0.0170
     29 O3         -1.1398   -2.7025   -0.5692 O.3       1 <0>        -0.3241
     30 C26        -2.3068   -3.5244   -0.5021 C.3       1 <0>         0.0229
     31 C27        -3.5550   -2.6496   -0.6349 C.3       1 <0>        -0.0009
     32 N1         -3.5713   -2.0178   -1.9610 N.4       1 <0>        -0.3846
     33 C28        -4.6805   -1.0590   -2.0309 C.3       1 <0>        -0.0070
     34 C29        -4.6532   -0.3392   -3.3810 C.3       1 <0>        -0.1467
     35 C30        -4.7952   -1.3693   -4.5053 C.3       1 <0>        -0.1389
     36 C31        -3.6760   -2.4068   -4.3780 C.3       1 <0>        -0.1454
     37 C32        -3.7395   -3.0499   -2.9910 C.3       1 <0>        -0.0136
     38 H1          3.7983   -4.1340   -8.5137 H         1 <0>         0.1267
     39 H2          4.4347   -1.8671   -7.8095 H         1 <0>         0.1270
     40 H3          5.1143   -1.4183   -5.5138 H         1 <0>         0.1303
     41 H4          5.5376   -2.2489   -3.2201 H         1 <0>         0.1351
     42 H5          4.9319   -6.4075   -2.3566 H         1 <0>         0.1297
     43 H6          4.2590   -6.8289   -4.6528 H         1 <0>         0.1342
     44 H7          3.8390   -5.9897   -6.9369 H         1 <0>         0.1301
     45 H8          4.3008   -5.0308    2.6187 H         1 <0>         0.1266
     46 H9          5.5181   -4.2895    4.5764 H         1 <0>         0.1390
     47 H10         8.4330   -2.3736    2.1132 H         1 <0>         0.1434
     48 H11         8.3920   -3.5040    4.8988 H         1 <0>         0.3999
     49 H12         3.3672   -2.6395   -0.4643 H         1 <0>         0.1410
     50 H13         1.1908   -1.5144   -0.6503 H         1 <0>         0.1407
     51 H14        -0.8023   -5.2792   -0.2591 H         1 <0>         0.1353
     52 H15         1.3680   -6.4177   -0.0839 H         1 <0>         0.1432
     53 H16        -2.2855   -4.2526   -1.3129 H         1 <0>         0.0891
     54 H17        -2.3291   -4.0463    0.4546 H         1 <0>         0.1124
     55 H18        -4.4456   -3.2667   -0.5154 H         1 <0>         0.1503
     56 H19        -3.5416   -1.8781    0.1350 H         1 <0>         0.1435
     57 H20        -5.6263   -1.5896   -1.9216 H         1 <0>         0.1294
     58 H21        -4.5799   -0.3285   -1.2281 H         1 <0>         0.1313
     59 H22        -5.4786    0.3709   -3.4316 H         1 <0>         0.1133
     60 H23        -3.7078    0.1920   -3.4912 H         1 <0>         0.0881
     61 H24        -5.7626   -1.8650   -4.4255 H         1 <0>         0.0822
     62 H25        -4.7196   -0.8682   -5.4704 H         1 <0>         0.0949
     63 H26        -3.8029   -3.1745   -5.1413 H         1 <0>         0.1125
     64 H27        -2.7104   -1.9185   -4.5090 H         1 <0>         0.0879
     65 H28        -2.9442   -3.7893   -2.8971 H         1 <0>         0.1271
     66 H29        -4.7054   -3.5381   -2.8612 H         1 <0>         0.1308
     67 H30        -2.6998   -1.5324   -2.1119 H         1 <0>         0.4293
@<TRIPOS>BOND
     1    1   10 ar
     2    1    2 ar
     3    1   38 1
     4    2    3 ar
     5    2   39 1
     6    3    4 ar
     7    3   40 1
     8    4    9 ar
     9    4    5 ar
    10    5    6 ar
    11    5   41 1
    12    6    7 ar
    13    6   11 1
    14    7    8 ar
    15    7   42 1
    16    8    9 ar
    17    8   43 1
    18    9   10 ar
    19   10   44 1
    20   11   19 1
    21   11   12 2
    22   12   13 1
    23   12   21 1
    24   13   18 ar
    25   13   14 ar
    26   14   15 ar
    27   14   45 1
    28   15   16 ar
    29   15   46 1
    30   16   17 ar
    31   16   20 1
    32   17   18 ar
    33   17   47 1
    34   18   19 1
    35   20   48 1
    36   21   22 2
    37   21   23 1
    38   23   28 ar
    39   23   24 ar
    40   24   25 ar
    41   24   49 1
    42   25   26 ar
    43   25   50 1
    44   26   27 ar
    45   26   29 1
    46   27   28 ar
    47   27   51 1
    48   28   52 1
    49   29   30 1
    50   30   31 1
    51   30   53 1
    52   30   54 1
    53   31   32 1
    54   31   55 1
    55   31   56 1
    56   32   37 1
    57   32   33 1
    58   32   67 1
    59   33   34 1
    60   33   57 1
    61   33   58 1
    62   34   35 1
    63   34   59 1
    64   34   60 1
    65   35   36 1
    66   35   61 1
    67   35   62 1
    68   36   37 1
    69   36   63 1
    70   36   64 1
    71   37   65 1
    72   37   66 1
@<TRIPOS>MOLECULE
CHEMBL191836
   39    42     0     0     0
SMALL
USER_CHARGES

@<TRIPOS>ATOM
      1 C1         -0.0167    1.3802    0.0096 C.ar      1 <0>        -0.1071
      2 C2          1.1683    2.0959    0.0022 C.ar      1 <0>        -0.1180
      3 C3          2.3775    1.4340   -0.0129 C.ar      1 <0>        -0.0965
      4 C4          2.4049    0.0353   -0.0206 C.ar      1 <0>        -0.0549
      5 C5          1.2031   -0.6807   -0.0130 C.ar      1 <0>        -0.0879
      6 C6          0.0021   -0.0041    0.0020 C.ar      1 <0>        -0.1175
      7 C7          3.6933   -0.6802   -0.0372 C.2       1 <0>         0.0370
      8 C8          4.1689   -1.4929    0.9695 C.2       1 <0>        -0.1328
      9 C9          5.4886   -2.0136    0.5586 C.2       1 <0>         0.4413
     10 O1          6.2016   -2.7618    1.1983 O.2       1 <0>        -0.3970
     11 C10         5.7782   -1.4522   -0.7799 C.ar      1 <0>        -0.2197
     12 C11         4.6817   -0.6456   -1.1424 C.ar      1 <0>        -0.0085
     13 C12         4.6860    0.0056   -2.3638 C.ar      1 <0>        -0.1254
     14 C13         5.7723   -0.1415   -3.2326 C.ar      1 <0>         0.1601
     15 C14         6.8464   -0.9353   -2.8801 C.ar      1 <0>        -0.1774
     16 C15         6.8585   -1.5906   -1.6481 C.ar      1 <0>         0.2043
     17 O2          7.9124   -2.3702   -1.3030 O.3       1 <0>        -0.4850
     18 O3          5.7708    0.4990   -4.4289 O.3       1 <0>        -0.4905
     19 C16         3.4778   -1.7913    2.2407 C.ar      1 <0>        -0.0402
     20 C17         3.2411   -0.7713    3.1656 C.ar      1 <0>        -0.0765
     21 C18         2.5956   -1.0541    4.3501 C.ar      1 <0>        -0.1430
     22 C19         2.1811   -2.3509    4.6250 C.ar      1 <0>         0.1139
     23 C20         2.4148   -3.3681    3.7086 C.ar      1 <0>        -0.1428
     24 C21         3.0540   -3.0931    2.5189 C.ar      1 <0>        -0.0782
     25 O4          1.5455   -2.6253    5.7943 O.3       1 <0>        -0.4986
     26 H1         -0.9608    1.9045    0.0260 H         1 <0>         0.1255
     27 H2          1.1454    3.1757    0.0078 H         1 <0>         0.1277
     28 H3          3.3011    1.9937   -0.0191 H         1 <0>         0.1256
     29 H4          1.2161   -1.7606   -0.0192 H         1 <0>         0.1246
     30 H5         -0.9266   -0.5553    0.0082 H         1 <0>         0.1272
     31 H6          3.8496    0.6276   -2.6464 H         1 <0>         0.1430
     32 H7          7.6812   -1.0441   -3.5566 H         1 <0>         0.1496
     33 H8          7.8263   -3.2928   -1.5795 H         1 <0>         0.4030
     34 H9          6.1632    1.3824   -4.4026 H         1 <0>         0.4017
     35 H10         3.5637    0.2372    2.9529 H         1 <0>         0.1273
     36 H11         2.4122   -0.2662    5.0656 H         1 <0>         0.1325
     37 H12         2.0911   -4.3751    3.9266 H         1 <0>         0.1331
     38 H13         3.2310   -3.8837    1.8048 H         1 <0>         0.1277
     39 H14         0.5835   -2.5374    5.7491 H         1 <0>         0.3924
@<TRIPOS>BOND
     1    1    6 ar
     2    1    2 ar
     3    1   26 1
     4    2    3 ar
     5    2   27 1
     6    3    4 ar
     7    3   28 1
     8    4    5 ar
     9    4    7 1
    10    5    6 ar
    11    5   29 1
    12    6   30 1
    13    7   12 1
    14    7    8 2
    15    8    9 1
    16    8   19 1
    17    9   10 2
    18    9   11 1
    19   11   16 ar
    20   11   12 ar
    21   12   13 ar
    22   13   14 ar
    23   13   31 1
    24   14   15 ar
    25   14   18 1
    26   15   16 ar
    27   15   32 1
    28   16   17 1
    29   17   33 1
    30   18   34 1
    31   19   24 ar
    32   19   20 ar
    33   20   21 ar
    34   20   35 1
    35   21   22 ar
    36   21   36 1
    37   22   23 ar
    38   22   25 1
    39   23   24 ar
    40   23   37 1
    41   24   38 1
    42   25   39 1
@<TRIPOS>MOLECULE
CHEMBL183162
   61    65     0     0     0
SMALL
USER_CHARGES

@<TRIPOS>ATOM
      1 C1         -0.0167    1.3781    0.0096 C.ar      1 <0>        -0.1152
      2 C2          1.1709    2.0855    0.0021 C.ar      1 <0>        -0.1194
      3 C3          2.3773    1.4107   -0.0130 C.ar      1 <0>        -0.1062
      4 C4          2.3960    0.0285   -0.0201 C.ar      1 <0>        -0.0812
      5 C5          1.2084   -0.6789   -0.0117 C.ar      1 <0>        -0.0860
      6 C6          0.0021   -0.0041    0.0020 C.ar      1 <0>        -0.1270
      7 C7          3.7112   -0.7071   -0.0376 C.3       1 <0>         0.1370
      8 H1          4.4896   -0.0760    0.3913 H         1 <0>         0.0801
      9 C8          4.0785   -1.0693   -1.4776 C.3       1 <0>        -0.0271
     10 H2          4.3544   -0.1648   -2.0197 H         1 <0>         0.1004
     11 C9          5.2404   -2.0300   -1.4810 C.ar      1 <0>        -0.0808
     12 C10         5.9568   -2.2042   -2.6552 C.ar      1 <0>        -0.0903
     13 C11         7.0234   -3.0783   -2.6980 C.ar      1 <0>        -0.1412
     14 C12         7.3804   -3.7870   -1.5597 C.ar      1 <0>         0.1144
     15 C13         6.6648   -3.6104   -0.3866 C.ar      1 <0>        -0.1373
     16 C14         5.5959   -2.7297   -0.3465 C.ar      1 <0>        -0.0992
     17 C15         4.8508   -2.5558    0.9514 C.3       1 <0>         0.0970
     18 O1          3.5971   -1.9149    0.7235 O.3       1 <0>        -0.3611
     19 O2          8.4281   -4.6518   -1.5956 O.3       1 <0>        -0.4981
     20 C16         2.8941   -1.7148   -2.1497 C.ar      1 <0>        -0.0813
     21 C17         2.3571   -2.8792   -1.6325 C.ar      1 <0>        -0.0557
     22 C18         1.2717   -3.4731   -2.2470 C.ar      1 <0>        -0.1439
     23 C19         0.7202   -2.8999   -3.3837 C.ar      1 <0>         0.1121
     24 C20         1.2606   -1.7312   -3.9003 C.ar      1 <0>        -0.2008
     25 C21         2.3428   -1.1385   -3.2791 C.ar      1 <0>        -0.0699
     26 O3         -0.3473   -3.4824   -3.9902 O.3       1 <0>        -0.3291
     27 C22        -0.8629   -2.8369   -5.1562 C.3       1 <0>         0.0280
     28 C23        -2.0535   -3.6325   -5.6952 C.3       1 <0>         0.0037
     29 N1         -3.1483   -3.5992   -4.7163 N.4       1 <0>        -0.3954
     30 C24        -3.7105   -2.2275   -4.6233 C.3       1 <0>        -0.0103
     31 C25        -5.1275   -2.4639   -4.0428 C.3       1 <0>        -0.1445
     32 C26        -5.5699   -3.7743   -4.7334 C.3       1 <0>        -0.1449
     33 C27        -4.2619   -4.4618   -5.1671 C.3       1 <0>        -0.0088
     34 H3         -0.9591    1.9053    0.0259 H         1 <0>         0.1204
     35 H4          1.1563    3.1654    0.0076 H         1 <0>         0.1249
     36 H5          3.3051    1.9634   -0.0196 H         1 <0>         0.1236
     37 H6          1.2231   -1.7588   -0.0176 H         1 <0>         0.1278
     38 H7         -0.9258   -0.5567    0.0082 H         1 <0>         0.1161
     39 H8          5.6781   -1.6530   -3.5412 H         1 <0>         0.1265
     40 H9          7.5787   -3.2107   -3.6148 H         1 <0>         0.1319
     41 H10         6.9410   -4.1616    0.5001 H         1 <0>         0.1335
     42 H11         4.6805   -3.5329    1.4035 H         1 <0>         0.1129
     43 H12         5.4463   -1.9455    1.6305 H         1 <0>         0.0736
     44 H13         9.2782   -4.2493   -1.3711 H         1 <0>         0.3955
     45 H14         2.7867   -3.3250   -0.7476 H         1 <0>         0.1429
     46 H15         0.8530   -4.3830   -1.8431 H         1 <0>         0.1305
     47 H16         0.8331   -1.2831   -4.7851 H         1 <0>         0.1244
     48 H17         2.7611   -0.2263   -3.6784 H         1 <0>         0.1265
     49 H18        -1.1863   -1.8280   -4.9000 H         1 <0>         0.0844
     50 H19        -0.0848   -2.7867   -5.9178 H         1 <0>         0.1069
     51 H20        -2.3909   -3.1910   -6.6329 H         1 <0>         0.1478
     52 H21        -1.7518   -4.6656   -5.8679 H         1 <0>         0.1409
     53 H22        -3.1156   -1.6129   -3.9478 H         1 <0>         0.1334
     54 H23        -3.7707   -1.7687   -5.6102 H         1 <0>         0.1345
     55 H24        -5.0846   -2.5932   -2.9613 H         1 <0>         0.0984
     56 H25        -5.7947   -1.6438   -4.3081 H         1 <0>         0.1172
     57 H26        -6.1148   -4.4062   -4.0321 H         1 <0>         0.1056
     58 H27        -6.1878   -3.5534   -5.6037 H         1 <0>         0.1043
     59 H28        -4.2376   -4.5627   -6.2522 H         1 <0>         0.1312
     60 H29        -4.1849   -5.4428   -4.6984 H         1 <0>         0.1329
     61 H30        -2.8170   -3.9025   -3.8128 H         1 <0>         0.4337
@<TRIPOS>BOND
     1    1    6 ar
     2    1    2 ar
     3    1   34 1
     4    2    3 ar
     5    2   35 1
     6    3    4 ar
     7    3   36 1
     8    4    5 ar
     9    4    7 1
    10    5    6 ar
    11    5   37 1
    12    6   38 1
    13    7    8 1
    14    7   18 1
    15    7    9 1
    16    9   10 1
    17    9   11 1
    18    9   20 1
    19   11   16 ar
    20   11   12 ar
    21   12   13 ar
    22   12   39 1
    23   13   14 ar
    24   13   40 1
    25   14   15 ar
    26   14   19 1
    27   15   16 ar
    28   15   41 1
    29   16   17 1
    30   17   18 1
    31   17   42 1
    32   17   43 1
    33   19   44 1
    34   20   25 ar
    35   20   21 ar
    36   21   22 ar
    37   21   45 1
    38   22   23 ar
    39   22   46 1
    40   23   24 ar
    41   23   26 1
    42   24   25 ar
    43   24   47 1
    44   25   48 1
    45   26   27 1
    46   27   28 1
    47   27   49 1
    48   27   50 1
    49   28   29 1
    50   28   51 1
    51   28   52 1
    52   29   33 1
    53   29   30 1
    54   29   61 1
    55   30   31 1
    56   30   53 1
    57   30   54 1
    58   31   32 1
    59   31   55 1
    60   31   56 1
    61   32   33 1
    62   32   57 1
    63   32   58 1
    64   33   59 1
    65   33   60 1
@<TRIPOS>MOLECULE
CHEMBL296875
   60    63     0     0     0
SMALL
USER_CHARGES

@<TRIPOS>ATOM
      1 C1         -3.5696    1.4408   -2.5201 C.3       1 <0>        -0.1475
      2 C2         -2.1249    1.0346   -2.2223 C.3       1 <0>        -0.0198
      3 C3         -1.3289    2.2658   -1.7848 C.3       1 <0>        -0.1507
      4 C4         -2.1089    0.0080   -1.1192 C.2       1 <0>        -0.1418
      5 C5         -1.6505   -1.2705   -1.1899 C.2       1 <0>        -0.1923
      6 C6         -1.7349   -2.0966    0.0180 C.ar      1 <0>        -0.0688
      7 C7         -1.3425   -3.4322    0.2292 C.ar      1 <0>        -0.0645
      8 C8         -1.5113   -4.0204    1.4458 C.ar      1 <0>        -0.1328
      9 C9         -2.0734   -3.3254    2.5128 C.ar      1 <0>         0.1303
     10 C10        -2.4697   -2.0088    2.3376 C.ar      1 <0>        -0.0938
     11 C11        -2.3008   -1.4089    1.1079 C.ar      1 <0>        -0.1318
     12 S1         -2.6460    0.2023    0.4576 S.3       1 <0>         0.1916
     13 O1         -2.2329   -3.9337    3.7180 O.3       1 <0>        -0.4916
     14 C12        -1.0898   -1.8059   -2.4354 C.2       1 <0>         0.4630
     15 O2          0.0883   -1.6401   -2.6933 O.2       1 <0>        -0.4320
     16 C13        -1.9545   -2.5459   -3.3762 C.ar      1 <0>        -0.1839
     17 C14        -3.3217   -2.6758   -3.1171 C.ar      1 <0>        -0.0196
     18 C15        -4.1246   -3.3667   -3.9969 C.ar      1 <0>        -0.1533
     19 C16        -3.5771   -3.9345   -5.1414 C.ar      1 <0>         0.1471
     20 C17        -2.2177   -3.8080   -5.4026 C.ar      1 <0>        -0.2157
     21 C18        -1.4090   -3.1133   -4.5309 C.ar      1 <0>        -0.0186
     22 O3         -4.3718   -4.6147   -6.0061 O.3       1 <0>        -0.3244
     23 C19        -3.7442   -5.1728   -7.1623 C.3       1 <0>         0.0230
     24 C20        -4.7911   -5.8963   -8.0117 C.3       1 <0>        -0.0009
     25 N1         -5.7792   -4.9262   -8.5022 N.4       1 <0>        -0.3846
     26 C21        -6.8667   -5.6394   -9.1829 C.3       1 <0>        -0.0071
     27 C22        -7.9386   -4.6407   -9.6247 C.3       1 <0>        -0.1467
     28 C23        -7.3153   -3.6221  -10.5834 C.3       1 <0>        -0.1391
     29 C24        -6.1352   -2.9371   -9.8882 C.3       1 <0>        -0.1454
     30 C25        -5.1301   -3.9989   -9.4366 C.3       1 <0>        -0.0136
     31 H1         -3.5812    2.1833   -3.3180 H         1 <0>         0.0699
     32 H2         -4.1367    0.5637   -2.8319 H         1 <0>         0.0585
     33 H3         -4.0202    1.8647   -1.6227 H         1 <0>         0.0653
     34 H4         -1.6743    0.6107   -3.1197 H         1 <0>         0.0852
     35 H5         -1.3404    3.0083   -2.5827 H         1 <0>         0.0708
     36 H6         -1.7795    2.6897   -0.8874 H         1 <0>         0.0644
     37 H7         -0.2996    1.9764   -1.5726 H         1 <0>         0.0638
     38 H8         -0.9038   -3.9955   -0.5812 H         1 <0>         0.1252
     39 H9         -1.2035   -5.0461    1.5854 H         1 <0>         0.1375
     40 H10        -2.9075   -1.4580    3.1570 H         1 <0>         0.1426
     41 H11        -1.4757   -3.8356    4.3114 H         1 <0>         0.3985
     42 H12        -3.7478   -2.2352   -2.2279 H         1 <0>         0.1420
     43 H13        -5.1812   -3.4678   -3.7972 H         1 <0>         0.1407
     44 H14        -1.7959   -4.2512   -6.2926 H         1 <0>         0.1353
     45 H15        -0.3538   -3.0110   -4.7372 H         1 <0>         0.1430
     46 H16        -3.2884   -4.3752   -7.7489 H         1 <0>         0.0892
     47 H17        -2.9755   -5.8806   -6.8523 H         1 <0>         0.1124
     48 H18        -4.3023   -6.3771   -8.8591 H         1 <0>         0.1504
     49 H19        -5.2925   -6.6507   -7.4055 H         1 <0>         0.1435
     50 H20        -6.4703   -6.1566  -10.0567 H         1 <0>         0.1295
     51 H21        -7.3071   -6.3662   -8.5003 H         1 <0>         0.1313
     52 H22        -8.7442   -5.1719  -10.1315 H         1 <0>         0.1134
     53 H23        -8.3358   -4.1231   -8.7516 H         1 <0>         0.0881
     54 H24        -6.9637   -4.1329  -11.4798 H         1 <0>         0.0823
     55 H25        -8.0608   -2.8753  -10.8568 H         1 <0>         0.0950
     56 H26        -5.6518   -2.2506  -10.5834 H         1 <0>         0.1126
     57 H27        -6.4950   -2.3841   -9.0206 H         1 <0>         0.0879
     58 H28        -4.2885   -3.5145   -8.9414 H         1 <0>         0.1271
     59 H29        -4.7708   -4.5510  -10.3050 H         1 <0>         0.1308
     60 H30        -6.1558   -4.4079   -7.7227 H         1 <0>         0.4291
@<TRIPOS>BOND
     1    1    2 1
     2    1   31 1
     3    1   32 1
     4    1   33 1
     5    2    3 1
     6    2    4 1
     7    2   34 1
     8    3   35 1
     9    3   36 1
    10    3   37 1
    11    4   12 1
    12    4    5 2
    13    5    6 1
    14    5   14 1
    15    6   11 ar
    16    6    7 ar
    17    7    8 ar
    18    7   38 1
    19    8    9 ar
    20    8   39 1
    21    9   10 ar
    22    9   13 1
    23   10   11 ar
    24   10   40 1
    25   11   12 1
    26   13   41 1
    27   14   15 2
    28   14   16 1
    29   16   21 ar
    30   16   17 ar
    31   17   18 ar
    32   17   42 1
    33   18   19 ar
    34   18   43 1
    35   19   20 ar
    36   19   22 1
    37   20   21 ar
    38   20   44 1
    39   21   45 1
    40   22   23 1
    41   23   24 1
    42   23   46 1
    43   23   47 1
    44   24   25 1
    45   24   48 1
    46   24   49 1
    47   25   30 1
    48   25   26 1
    49   25   60 1
    50   26   27 1
    51   26   50 1
    52   26   51 1
    53   27   28 1
    54   27   52 1
    55   27   53 1
    56   28   29 1
    57   28   54 1
    58   28   55 1
    59   29   30 1
    60   29   56 1
    61   29   57 1
    62   30   58 1
    63   30   59 1
@<TRIPOS>MOLECULE
CHEMBL433769
   67    72     0     0     0
SMALL
USER_CHARGES

@<TRIPOS>ATOM
      1 C1          1.1631   -0.6117   -0.4390 C.ar      1 <0>        -0.0873
      2 C2          2.3518    0.0921   -0.4484 C.ar      1 <0>        -0.1389
      3 C3          2.3800    1.4096   -0.0147 C.ar      1 <0>         0.1157
      4 C4          1.2137    2.0170    0.4273 C.ar      1 <0>        -0.1461
      5 C5          0.0275    1.3089    0.4346 C.ar      1 <0>        -0.0837
      6 C6          0.0021   -0.0041    0.0020 C.ar      1 <0>        -0.0898
      7 C7         -1.2934   -0.7740    0.0107 C.3       1 <0>        -0.0641
      8 H1         -2.1334   -0.0869    0.1120 H         1 <0>         0.1382
      9 C8         -1.2969   -1.7821    1.1721 C.3       1 <0>         0.1497
     10 H2         -2.1779   -2.4197    1.0986 H         1 <0>         0.0962
     11 O1         -0.1255   -2.5802    1.0967 O.3       1 <0>        -0.3049
     12 C9          0.1551   -3.3416    0.0132 C.ar      1 <0>         0.1211
     13 C10         0.9986   -4.4351    0.1946 C.ar      1 <0>        -0.1140
     14 C11         1.3394   -5.2447   -0.8692 C.ar      1 <0>        -0.1061
     15 C12         0.8443   -4.9772   -2.1372 C.ar      1 <0>         0.0985
     16 C13        -0.0005   -3.8960   -2.3286 C.ar      1 <0>        -0.0901
     17 C14        -0.3494   -3.0850   -1.2568 C.ar      1 <0>        -0.1477
     18 S1         -1.4568   -1.7323   -1.5285 S.3       1 <0>        -0.0841
     19 O2          1.1866   -5.7716   -3.1864 O.3       1 <0>        -0.4915
     20 C15        -1.3198   -1.0400    2.4835 C.ar      1 <0>        -0.1046
     21 C16        -0.1522   -0.5024    2.9927 C.ar      1 <0>        -0.0346
     22 C17        -0.1704    0.1779    4.1949 C.ar      1 <0>        -0.1417
     23 C18        -1.3617    0.3218    4.8912 C.ar      1 <0>         0.1245
     24 C19        -2.5320   -0.2182    4.3779 C.ar      1 <0>        -0.2035
     25 C20        -2.5094   -0.8931    3.1727 C.ar      1 <0>        -0.0589
     26 O3         -1.3822    0.9902    6.0743 O.3       1 <0>        -0.3267
     27 C21        -2.6441    1.0995    6.7359 C.3       1 <0>         0.0272
     28 C22        -2.4698    1.8785    8.0411 C.3       1 <0>         0.0040
     29 N1         -2.0692    3.2589    7.7377 N.4       1 <0>        -0.3980
     30 C23        -3.1983    4.0050    7.1258 C.3       1 <0>        -0.0061
     31 C24        -2.8649    5.4912    7.3737 C.3       1 <0>        -0.1105
     32 H3         -2.3945    5.9514    6.5048 H         1 <0>         0.1137
     33 C25        -4.1543    6.2295    7.7848 C.3       1 <0>        -0.1200
     34 C26        -3.7199    7.1295    8.9676 C.3       1 <0>        -0.1280
     35 C27        -2.7174    6.2296    9.7311 C.3       1 <0>        -0.1184
     36 C28        -1.9257    5.4894    8.6056 C.3       1 <0>        -0.1131
     37 H4         -0.9683    5.9626    8.3874 H         1 <0>         0.1174
     38 C29        -1.7770    4.0023    8.9900 C.3       1 <0>        -0.0004
     39 O4          3.5482    2.1039   -0.0225 O.3       1 <0>        -0.4998
     40 H5          1.1398   -1.6359   -0.7807 H         1 <0>         0.1323
     41 H6          3.2585   -0.3831   -0.7926 H         1 <0>         0.1315
     42 H7          1.2331    3.0424    0.7657 H         1 <0>         0.1293
     43 H8         -0.8807    1.7813    0.7787 H         1 <0>         0.1234
     44 H9          1.3899   -4.6512    1.1778 H         1 <0>         0.1413
     45 H10         1.9942   -6.0894   -0.7144 H         1 <0>         0.1429
     46 H11        -0.3883   -3.6831   -3.3139 H         1 <0>         0.1405
     47 H12         0.5878   -6.5179   -3.3264 H         1 <0>         0.3946
     48 H13         0.7750   -0.6147    2.4504 H         1 <0>         0.1388
     49 H14         0.7420    0.5970    4.5927 H         1 <0>         0.1351
     50 H15        -3.4607   -0.1075    4.9180 H         1 <0>         0.1312
     51 H16        -3.4210   -1.3098    2.7705 H         1 <0>         0.1347
     52 H17        -3.3483    1.6246    6.0906 H         1 <0>         0.0855
     53 H18        -3.0265    0.1028    6.9560 H         1 <0>         0.1091
     54 H19        -3.4123    1.8857    8.5886 H         1 <0>         0.1482
     55 H20        -1.7003    1.4021    8.6486 H         1 <0>         0.1418
     56 H21        -3.2531    3.8013    6.0564 H         1 <0>         0.1307
     57 H22        -4.1369    3.7400    7.6125 H         1 <0>         0.1345
     58 H23        -4.5249    6.8374    6.9595 H         1 <0>         0.0839
     59 H24        -4.9147    5.5179    8.1067 H         1 <0>         0.0767
     60 H25        -3.2297    8.0332    8.6057 H         1 <0>         0.0786
     61 H26        -4.5737    7.3778    9.5980 H         1 <0>         0.0823
     62 H27        -2.0378    6.8376   10.3283 H         1 <0>         0.0832
     63 H28        -3.2488    5.5180   10.3630 H         1 <0>         0.0776
     64 H29        -2.4952    3.7368    9.7657 H         1 <0>         0.1347
     65 H30        -0.7606    3.7965    9.3256 H         1 <0>         0.1349
     66 H31         3.7178    2.5792   -0.8474 H         1 <0>         0.3955
     67 H32        -1.2661    3.2672    7.1269 H         1 <0>         0.4337
@<TRIPOS>BOND
     1    1    6 ar
     2    1    2 ar
     3    1   40 1
     4    2    3 ar
     5    2   41 1
     6    3    4 ar
     7    3   39 1
     8    4    5 ar
     9    4   42 1
    10    5    6 ar
    11    5   43 1
    12    6    7 1
    13    7    8 1
    14    7   18 1
    15    7    9 1
    16    9   10 1
    17    9   11 1
    18    9   20 1
    19   11   12 1
    20   12   17 ar
    21   12   13 ar
    22   13   14 ar
    23   13   44 1
    24   14   15 ar
    25   14   45 1
    26   15   16 ar
    27   15   19 1
    28   16   17 ar
    29   16   46 1
    30   17   18 1
    31   19   47 1
    32   20   25 ar
    33   20   21 ar
    34   21   22 ar
    35   21   48 1
    36   22   23 ar
    37   22   49 1
    38   23   24 ar
    39   23   26 1
    40   24   25 ar
    41   24   50 1
    42   25   51 1
    43   26   27 1
    44   27   28 1
    45   27   52 1
    46   27   53 1
    47   28   29 1
    48   28   54 1
    49   28   55 1
    50   29   38 1
    51   29   30 1
    52   29   67 1
    53   30   31 1
    54   30   56 1
    55   30   57 1
    56   31   32 1
    57   31   36 1
    58   31   33 1
    59   33   34 1
    60   33   58 1
    61   33   59 1
    62   34   35 1
    63   34   60 1
    64   34   61 1
    65   35   36 1
    66   35   62 1
    67   35   63 1
    68   36   37 1
    69   36   38 1
    70   38   64 1
    71   38   65 1
    72   39   66 1
@<TRIPOS>MOLECULE
CHEMBL395308
   33    35     0     0     0
SMALL
USER_CHARGES

@<TRIPOS>ATOM
      1 C1         -0.0166    1.3590   -0.0162 C.ar      1 <0>        -0.1134
      2 C2          1.1686    2.0898   -0.0234 C.ar      1 <0>        -0.1140
      3 C3          2.3784    1.4629   -0.0304 C.ar      1 <0>        -0.1123
      4 C4          2.4339    0.0615   -0.0299 C.ar      1 <0>        -0.0445
      5 C5          1.2288   -0.6796   -0.0222 C.ar      1 <0>        -0.0254
      6 C6          0.0019   -0.0040   -0.0156 C.ar      1 <0>        -0.1166
      7 C7          1.2938   -2.1398   -0.0218 C.ar      1 <0>        -0.0575
      8 C8          2.5387   -2.7592   -0.0290 C.ar      1 <0>        -0.0667
      9 C9          3.7021   -2.0096   -0.0360 C.ar      1 <0>        -0.1143
     10 C10         3.6716   -0.6253   -0.0366 C.ar      1 <0>        -0.0088
     11 C11         4.9382    0.1393   -0.0448 C.ar      1 <0>        -0.0626
     12 C12         5.1283    1.1686   -0.9684 C.ar      1 <0>        -0.0878
     13 C13         6.3094    1.8790   -0.9726 C.ar      1 <0>        -0.1443
     14 C14         7.3100    1.5716   -0.0597 C.ar      1 <0>         0.1115
     15 C15         7.1248    0.5478    0.8604 C.ar      1 <0>        -0.1435
     16 C16         5.9439   -0.1629    0.8749 C.ar      1 <0>        -0.0845
     17 O1          8.4729    2.2736   -0.0672 O.3       1 <0>        -0.4992
     18 C17         0.0605   -2.9423   -0.0133 C.2       1 <0>         0.1520
     19 N1         -1.0911   -2.3591    0.0990 N.2       1 <0>        -0.3296
     20 O2         -2.2779   -3.1313    0.1071 O.3       1 <0>        -0.4131
     21 H1         -0.9631    1.8791   -0.0065 H         1 <0>         0.1243
     22 H2          1.1284    3.1690   -0.0237 H         1 <0>         0.1240
     23 H3          3.2899    2.0422   -0.0366 H         1 <0>         0.1321
     24 H4         -0.9241   -0.5598   -0.0103 H         1 <0>         0.1652
     25 H5          2.5985   -3.8375   -0.0287 H         1 <0>         0.1368
     26 H6          4.6559   -2.5161   -0.0411 H         1 <0>         0.1329
     27 H7          4.3509    1.4078   -1.6790 H         1 <0>         0.1318
     28 H8          6.4571    2.6755   -1.6869 H         1 <0>         0.1327
     29 H9          7.9054    0.3111    1.5683 H         1 <0>         0.1327
     30 H10         5.7989   -0.9559    1.5936 H         1 <0>         0.1313
     31 H11         8.4647    3.0544    0.5032 H         1 <0>         0.3931
     32 H12         0.1152   -4.0173   -0.1008 H         1 <0>         0.1309
     33 H13        -3.0867   -2.6086    0.1948 H         1 <0>         0.4070
@<TRIPOS>BOND
     1    1    6 ar
     2    1    2 ar
     3    1   21 1
     4    2    3 ar
     5    2   22 1
     6    3    4 ar
     7    3   23 1
     8    4   10 ar
     9    4    5 ar
    10    5    6 ar
    11    5    7 ar
    12    6   24 1
    13    7    8 ar
    14    7   18 1
    15    8    9 ar
    16    8   25 1
    17    9   10 ar
    18    9   26 1
    19   10   11 1
    20   11   16 ar
    21   11   12 ar
    22   12   13 ar
    23   12   27 1
    24   13   14 ar
    25   13   28 1
    26   14   15 ar
    27   14   17 1
    28   15   16 ar
    29   15   29 1
    30   16   30 1
    31   17   31 1
    32   18   19 2
    33   18   32 1
    34   19   20 1
    35   20   33 1
@<TRIPOS>MOLECULE
CHEMBL370849
   60    65     0     0     0
SMALL
USER_CHARGES

@<TRIPOS>ATOM
      1 C1         -0.0167    1.3784    0.0096 C.ar      1 <0>        -0.0557
      2 C2          1.1695    2.0865    0.0021 C.ar      1 <0>        -0.1407
      3 C3          2.3802    1.4093   -0.0131 C.ar      1 <0>         0.1215
      4 C4          2.3963    0.0221   -0.0206 C.ar      1 <0>        -0.2000
      5 C5          1.2074   -0.6814   -0.0130 C.ar      1 <0>        -0.0633
      6 C6          0.0021   -0.0041    0.0020 C.ar      1 <0>        -0.1353
      7 C7         -1.2934   -0.7740    0.0107 C.3       1 <0>         0.1477
      8 N1         -1.7268   -1.0161   -1.3676 N.pl3     1 <0>        -0.4679
      9 C8         -2.5330   -0.1693   -2.0978 C.ar      1 <0>         0.1322
     10 C9         -3.1340    1.0514   -1.8070 C.ar      1 <0>        -0.1199
     11 C10        -3.9055    1.6853   -2.7556 C.ar      1 <0>        -0.1037
     12 C11        -4.0932    1.1150   -4.0115 C.ar      1 <0>         0.0829
     13 C12        -3.5061   -0.0956   -4.3199 C.ar      1 <0>        -0.0876
     14 C13        -2.7202   -0.7481   -3.3659 C.ar      1 <0>        -0.0425
     15 C14        -1.9733   -1.9987   -3.3498 C.2       1 <0>        -0.1760
     16 C15        -1.3742   -2.1399   -2.1315 C.2       1 <0>         0.0953
     17 C16        -0.5626   -3.3553   -1.9315 C.ar      1 <0>        -0.0742
     18 C17         0.1504   -3.7323   -0.7696 C.ar      1 <0>        -0.0738
     19 C18         0.8596   -4.8920   -0.7359 C.ar      1 <0>        -0.1431
     20 C19         0.9096   -5.7448   -1.8359 C.ar      1 <0>         0.1375
     21 C20         0.2227   -5.4068   -2.9912 C.ar      1 <0>        -0.0971
     22 C21        -0.4981   -4.2317   -3.0306 C.ar      1 <0>        -0.0869
     23 S1         -1.4999   -3.4426   -4.2639 S.3       1 <0>         0.1202
     24 O1          1.6262   -6.8984   -1.7771 O.3       1 <0>        -0.4917
     25 O2         -4.8581    1.7526   -4.9378 O.3       1 <0>        -0.4933
     26 O3          3.5484    2.1036   -0.0209 O.3       1 <0>        -0.3238
     27 C22         4.7565    1.3405   -0.0365 C.3       1 <0>         0.0272
     28 C23         5.9580    2.2878   -0.0434 C.3       1 <0>         0.0013
     29 N2          5.9923    3.0443    1.2153 N.4       1 <0>        -0.3912
     30 C24         4.8165    3.9374    1.2913 C.3       1 <0>        -0.0016
     31 C25         5.3362    5.2166    1.9935 C.3       1 <0>        -0.1456
     32 C26         6.7651    5.3403    1.4022 C.3       1 <0>        -0.1420
     33 C27         7.2129    3.8699    1.2649 C.3       1 <0>        -0.0136
     34 H1         -0.9594    1.9052    0.0259 H         1 <0>         0.1358
     35 H2          1.1543    3.1664    0.0076 H         1 <0>         0.1358
     36 H3          3.3375   -0.5074   -0.0328 H         1 <0>         0.1300
     37 H4          1.2194   -1.7613   -0.0189 H         1 <0>         0.1325
     38 H5         -1.1460   -1.7274    0.5180 H         1 <0>         0.0980
     39 H6         -2.0553   -0.1973    0.5352 H         1 <0>         0.1036
     40 H7         -2.9956    1.5025   -0.8355 H         1 <0>         0.1272
     41 H8         -4.3690    2.6326   -2.5229 H         1 <0>         0.1385
     42 H9         -3.6534   -0.5369   -5.2945 H         1 <0>         0.1346
     43 H10         0.1317   -3.0921    0.0999 H         1 <0>         0.1252
     44 H11         1.3960   -5.1573    0.1632 H         1 <0>         0.1361
     45 H12         0.2519   -6.0574   -3.8528 H         1 <0>         0.1461
     46 H13         1.1207   -7.6597   -1.4610 H         1 <0>         0.3998
     47 H14        -4.3641    2.3605   -5.5048 H         1 <0>         0.3901
     48 H15         4.7979    0.7076    0.8500 H         1 <0>         0.0866
     49 H16         4.7806    0.7165   -0.9299 H         1 <0>         0.1094
     50 H17         6.8762    1.7093   -0.1448 H         1 <0>         0.1498
     51 H18         5.8702    2.9798   -0.8810 H         1 <0>         0.1408
     52 H19         4.4545    4.1741    0.2908 H         1 <0>         0.1373
     53 H20         4.0261    3.4746    1.8822 H         1 <0>         0.1336
     54 H21         4.7279    6.0816    1.7291 H         1 <0>         0.1163
     55 H22         5.3713    5.0818    3.0746 H         1 <0>         0.0970
     56 H23         6.7380    5.8275    0.4275 H         1 <0>         0.0987
     57 H24         7.4198    5.8803    2.0861 H         1 <0>         0.1128
     58 H25         7.8187    3.5849    2.1251 H         1 <0>         0.1329
     59 H26         7.7854    3.7409    0.3463 H         1 <0>         0.1319
     60 H27         5.9824    2.4058    1.9965 H         1 <0>         0.4245
@<TRIPOS>BOND
     1    1    6 ar
     2    1    2 ar
     3    1   34 1
     4    2    3 ar
     5    2   35 1
     6    3    4 ar
     7    3   26 1
     8    4    5 ar
     9    4   36 1
    10    5    6 ar
    11    5   37 1
    12    6    7 1
    13    7    8 1
    14    7   38 1
    15    7   39 1
    16    8   16 1
    17    8    9 1
    18    9   14 ar
    19    9   10 ar
    20   10   11 ar
    21   10   40 1
    22   11   12 ar
    23   11   41 1
    24   12   13 ar
    25   12   25 1
    26   13   14 ar
    27   13   42 1
    28   14   15 1
    29   15   23 1
    30   15   16 2
    31   16   17 1
    32   17   22 ar
    33   17   18 ar
    34   18   19 ar
    35   18   43 1
    36   19   20 ar
    37   19   44 1
    38   20   21 ar
    39   20   24 1
    40   21   22 ar
    41   21   45 1
    42   22   23 1
    43   24   46 1
    44   25   47 1
    45   26   27 1
    46   27   28 1
    47   27   48 1
    48   27   49 1
    49   28   29 1
    50   28   50 1
    51   28   51 1
    52   29   33 1
    53   29   30 1
    54   29   60 1
    55   30   31 1
    56   30   52 1
    57   30   53 1
    58   31   32 1
    59   31   54 1
    60   31   55 1
    61   32   33 1
    62   32   56 1
    63   32   57 1
    64   33   58 1
    65   33   59 1
@<TRIPOS>MOLECULE
CHEMBL57093
   59    62     0     0     0
SMALL
USER_CHARGES

@<TRIPOS>ATOM
      1 C1         -0.0187    1.5258    0.0104 C.3       1 <0>        -0.1546
      2 C2          0.0021   -0.0041    0.0020 C.3       1 <0>        -0.1450
      3 C3         -1.4333   -0.5336    0.0129 C.3       1 <0>         0.1075
      4 N1         -1.4134   -1.9985    0.0048 N.pl3     1 <0>        -0.5775
      5 C4         -1.3914   -2.7377    1.2694 C.3       1 <0>         0.1471
      6 C5         -2.8045   -3.0105    1.7165 C.ar      1 <0>         0.0842
      7 C6         -3.3983   -4.2192    1.4047 C.ar      1 <0>        -0.1722
      8 C7         -4.6986   -4.4602    1.8207 C.ar      1 <0>        -0.0625
      9 C8         -5.3559   -3.4720    2.5380 C.ar      1 <0>        -0.1518
     10 C9         -4.6977   -2.2884    2.8124 C.ar      1 <0>         0.1144
     11 N2         -3.4582   -2.0957    2.4052 N.ar      1 <0>        -0.4619
     12 C10        -1.4155   -2.6871   -1.2029 C.ar      1 <0>         0.4590
     13 C11        -1.4307   -1.9770   -2.3975 C.ar      1 <0>        -0.2156
     14 C12        -1.4322   -2.6769   -3.6048 C.ar      1 <0>         0.1342
     15 C13        -1.4182   -4.0734   -3.5626 C.ar      1 <0>        -0.1739
     16 C14        -1.4035   -4.7122   -2.3283 C.ar      1 <0>         0.2448
     17 N3         -1.3975   -4.0102   -1.2005 N.ar      1 <0>        -0.5219
     18 C15        -1.3886   -6.1938   -2.2698 C.ar      1 <0>        -0.1106
     19 C16        -1.3795   -6.8441   -1.0363 C.ar      1 <0>        -0.0887
     20 C17        -1.3661   -8.2216   -0.9851 C.ar      1 <0>        -0.1315
     21 C18        -1.3612   -8.9616   -2.1603 C.ar      1 <0>         0.1546
     22 C19        -1.3702   -8.3170   -3.3899 C.ar      1 <0>        -0.0993
     23 C20        -1.3894   -6.9394   -3.4476 C.ar      1 <0>        -0.0532
     24 C21        -1.3648   -9.1237   -4.6628 C.3       1 <0>        -0.1235
     25 O1         -1.3471  -10.3189   -2.1066 O.3       1 <0>        -0.4882
     26 C22        -1.4487   -1.9556   -4.9016 C.ar      1 <0>        -0.1015
     27 C23        -1.4572   -0.5625   -4.9267 C.ar      1 <0>        -0.0780
     28 C24        -1.4720    0.1033   -6.1357 C.ar      1 <0>        -0.1194
     29 C25        -1.4785   -0.6100   -7.3208 C.ar      1 <0>        -0.0773
     30 C26        -1.4702   -1.9930   -7.3017 C.ar      1 <0>        -0.1191
     31 C27        -1.4500   -2.6689   -6.0985 C.ar      1 <0>        -0.0782
     32 H1          1.0039    1.9031    0.0027 H         1 <0>         0.0683
     33 H2         -0.5459    1.8868   -0.8726 H         1 <0>         0.0600
     34 H3         -0.5289    1.8773    0.9072 H         1 <0>         0.0637
     35 H4          0.5123   -0.3556   -0.8948 H         1 <0>         0.0693
     36 H5          0.5293   -0.3651    0.8851 H         1 <0>         0.0747
     37 H6         -1.9435   -0.1821    0.9097 H         1 <0>         0.1131
     38 H7         -1.9605   -0.1726   -0.8702 H         1 <0>         0.0931
     39 H8         -0.8660   -3.6823    1.1290 H         1 <0>         0.0906
     40 H9         -0.8784   -2.1458    2.0274 H         1 <0>         0.1329
     41 H10        -2.8563   -4.9662    0.8438 H         1 <0>         0.1170
     42 H11        -5.1881   -5.3951    1.5913 H         1 <0>         0.1438
     43 H12        -6.3695   -3.6254    2.8776 H         1 <0>         0.1476
     44 H13        -5.2027   -1.5138    3.3705 H         1 <0>         0.1687
     45 H14        -1.4416   -0.8971   -2.3915 H         1 <0>         0.1791
     46 H15        -1.4193   -4.6487   -4.4767 H         1 <0>         0.1779
     47 H16        -1.3826   -6.2692   -0.1221 H         1 <0>         0.1195
     48 H17        -1.3591   -8.7259   -0.0301 H         1 <0>         0.1475
     49 H18        -1.4009   -6.4385   -4.4044 H         1 <0>         0.1443
     50 H19        -2.3911   -9.3284   -4.9676 H         1 <0>         0.0810
     51 H20        -0.8582   -8.5614   -5.4472 H         1 <0>         0.0768
     52 H21        -0.8412  -10.0648   -4.4944 H         1 <0>         0.0840
     53 H22        -2.2264  -10.7210   -2.0891 H         1 <0>         0.4053
     54 H23        -1.4524   -0.0046   -4.0020 H         1 <0>         0.1300
     55 H24        -1.4789    1.1830   -6.1563 H         1 <0>         0.1371
     56 H25        -1.4905   -0.0850   -8.2646 H         1 <0>         0.1363
     57 H26        -1.4753   -2.5450   -8.2299 H         1 <0>         0.1376
     58 H27        -1.4394   -3.7488   -6.0847 H         1 <0>         0.1317
     59 H28        -1.3834   -4.4804   -0.3522 H         1 <0>         0.4287
@<TRIPOS>BOND
     1    1    2 1
     2    1   32 1
     3    1   33 1
     4    1   34 1
     5    2    3 1
     6    2   35 1
     7    2   36 1
     8    3    4 1
     9    3   37 1
    10    3   38 1
    11    4    5 1
    12    4   12 1
    13    5    6 1
    14    5   39 1
    15    5   40 1
    16    6   11 ar
    17    6    7 ar
    18    7    8 ar
    19    7   41 1
    20    8    9 ar
    21    8   42 1
    22    9   10 ar
    23    9   43 1
    24   10   11 ar
    25   10   44 1
    26   12   17 ar
    27   12   13 ar
    28   13   14 ar
    29   13   45 1
    30   14   15 ar
    31   14   26 1
    32   15   16 ar
    33   15   46 1
    34   16   17 ar
    35   16   18 1
    36   17   59 1
    37   18   23 ar
    38   18   19 ar
    39   19   20 ar
    40   19   47 1
    41   20   21 ar
    42   20   48 1
    43   21   22 ar
    44   21   25 1
    45   22   23 ar
    46   22   24 1
    47   23   49 1
    48   24   50 1
    49   24   51 1
    50   24   52 1
    51   25   53 1
    52   26   31 ar
    53   26   27 ar
    54   27   28 ar
    55   27   54 1
    56   28   29 ar
    57   28   55 1
    58   29   30 ar
    59   29   56 1
    60   30   31 ar
    61   30   57 1
    62   31   58 1
@<TRIPOS>MOLECULE
CHEMBL113704
   34    36     0     0     0
SMALL
USER_CHARGES

@<TRIPOS>ATOM
      1 C1         -0.0246    1.5268   -0.0567 C.3       1 <0>        -0.1406
      2 C2         -0.0030   -0.0031   -0.0647 C.3       1 <0>        -0.1626
      3 C3         -1.4328   -0.5471    0.0704 C.3       1 <0>         0.1484
      4 O1         -1.9928   -0.1023    1.3057 O.3       1 <0>        -0.2943
      5 C4         -1.3030   -0.3231    2.4501 C.ar      1 <0>         0.1699
      6 C5         -1.9697   -0.3472    3.6675 C.ar      1 <0>        -0.1484
      7 C6         -1.2705   -0.5661    4.8369 C.ar      1 <0>        -0.0755
      8 C7          0.1057   -0.7632    4.8136 C.ar      1 <0>         0.0639
      9 C8          0.7880   -0.7446    3.6110 C.ar      1 <0>        -0.0518
     10 C9          0.0855   -0.5277    2.4239 C.ar      1 <0>        -0.2260
     11 C10         0.7857   -0.5155    1.1273 C.2       1 <0>         0.4088
     12 O2          1.9325   -0.8954    1.0178 O.2       1 <0>        -0.4359
     13 O3          0.7814   -0.9741    5.9747 O.3       1 <0>        -0.4927
     14 C11        -1.4021   -2.0536    0.0457 C.ar      1 <0>        -0.1430
     15 C12        -1.8409   -2.7710    1.1433 C.ar      1 <0>        -0.0898
     16 C13        -1.8133   -4.1520    1.1233 C.ar      1 <0>        -0.1409
     17 C14        -1.3453   -4.8191    0.0005 C.ar      1 <0>         0.1142
     18 C15        -0.9061   -4.0970   -1.0997 C.ar      1 <0>        -0.1414
     19 C16        -0.9405   -2.7162   -1.0766 C.ar      1 <0>        -0.0867
     20 O4         -1.3168   -6.1776   -0.0215 O.3       1 <0>        -0.4983
     21 H1          0.9963    1.9048   -0.1121 H         1 <0>         0.0689
     22 H2         -0.5923    1.8866   -0.9148 H         1 <0>         0.0776
     23 H3         -0.4931    1.8788    0.8623 H         1 <0>         0.0682
     24 H4          0.4466   -0.3631   -0.9900 H         1 <0>         0.1183
     25 H5         -2.0408   -0.1816   -0.7571 H         1 <0>         0.1435
     26 H6         -3.0384   -0.1947    3.6995 H         1 <0>         0.1459
     27 H7         -1.7973   -0.5840    5.7795 H         1 <0>         0.1431
     28 H8          1.8570   -0.8968    3.5901 H         1 <0>         0.1422
     29 H9          0.8507   -1.9053    6.2259 H         1 <0>         0.3913
     30 H10        -2.2051   -2.2512    2.0171 H         1 <0>         0.1321
     31 H11        -2.1555   -4.7119    1.9811 H         1 <0>         0.1320
     32 H12        -0.5413   -4.6141   -1.9749 H         1 <0>         0.1341
     33 H13        -0.6028   -2.1537   -1.9345 H         1 <0>         0.1319
     34 H14        -2.1263   -6.5826   -0.3617 H         1 <0>         0.3938
@<TRIPOS>BOND
     1    1    2 1
     2    1   21 1
     3    1   22 1
     4    1   23 1
     5    2   11 1
     6    2    3 1
     7    2   24 1
     8    3    4 1
     9    3   14 1
    10    3   25 1
    11    4    5 1
    12    5   10 ar
    13    5    6 ar
    14    6    7 ar
    15    6   26 1
    16    7    8 ar
    17    7   27 1
    18    8    9 ar
    19    8   13 1
    20    9   10 ar
    21    9   28 1
    22   10   11 1
    23   11   12 2
    24   13   29 1
    25   14   19 ar
    26   14   15 ar
    27   15   16 ar
    28   15   30 1
    29   16   17 ar
    30   16   31 1
    31   17   18 ar
    32   17   20 1
    33   18   19 ar
    34   18   32 1
    35   19   33 1
    36   20   34 1
@<TRIPOS>MOLECULE
CHEMBL113704__1
   34    36     0     0     0
SMALL
USER_CHARGES

@<TRIPOS>ATOM
      1 C1         -0.0187    1.5258    0.0104 C.3       1 <0>        -0.1441
      2 C2          0.0021   -0.0041    0.0020 C.3       1 <0>        -0.1608
      3 C3         -1.4328   -0.5471    0.0704 C.3       1 <0>         0.1479
      4 O1         -2.0489   -0.1030    1.2790 O.3       1 <0>        -0.2975
      5 C4         -1.4128   -0.3254    2.4537 C.ar      1 <0>         0.1730
      6 C5         -2.1351   -0.3501    3.6391 C.ar      1 <0>        -0.1424
      7 C6         -1.4907   -0.5697    4.8394 C.ar      1 <0>        -0.0744
      8 C7         -0.1150   -0.7679    4.8795 C.ar      1 <0>         0.0627
      9 C8          0.6220   -0.7496    3.7096 C.ar      1 <0>        -0.0516
     10 C9         -0.0248   -0.5311    2.4915 C.ar      1 <0>        -0.2337
     11 C10         0.7346   -0.5182    1.2286 C.2       1 <0>         0.4058
     12 O2          1.8849   -0.8989    1.1719 O.2       1 <0>        -0.4356
     13 O3          0.5063   -0.9795    6.0705 O.3       1 <0>        -0.4928
     14 C11        -2.2193   -0.0401   -1.1108 C.ar      1 <0>        -0.1000
     15 C12        -2.7351    1.2427   -1.0972 C.ar      1 <0>        -0.0718
     16 C13        -3.4568    1.7097   -2.1786 C.ar      1 <0>        -0.1477
     17 C14        -3.6635    0.8906   -3.2791 C.ar      1 <0>         0.1173
     18 C15        -3.1445   -0.3960   -3.2904 C.ar      1 <0>        -0.1449
     19 C16        -2.4191   -0.8565   -2.2087 C.ar      1 <0>        -0.0838
     20 O4         -4.3735    1.3475   -4.3439 O.3       1 <0>        -0.4990
     21 H1          1.0039    1.9031    0.0027 H         1 <0>         0.0677
     22 H2         -0.5459    1.8868   -0.8726 H         1 <0>         0.0804
     23 H3         -0.5289    1.8773    0.9072 H         1 <0>         0.0672
     24 H4          0.4937   -0.3636   -0.9019 H         1 <0>         0.1187
     25 H5         -1.4106   -1.6368    0.0525 H         1 <0>         0.0892
     26 H6         -3.2040   -0.1968    3.6218 H         1 <0>         0.1454
     27 H7         -2.0604   -0.5874    5.7567 H         1 <0>         0.1432
     28 H8          1.6907   -0.9026    3.7380 H         1 <0>         0.1429
     29 H9          0.5632   -1.9108    6.3244 H         1 <0>         0.3914
     30 H10        -2.5740    1.8800   -0.2403 H         1 <0>         0.1349
     31 H11        -3.8601    2.7115   -2.1673 H         1 <0>         0.1332
     32 H12        -3.3041   -1.0356   -4.1459 H         1 <0>         0.1340
     33 H13        -2.0112   -1.8564   -2.2189 H         1 <0>         0.1310
     34 H14        -3.8346    1.7836   -5.0181 H         1 <0>         0.3943
@<TRIPOS>BOND
     1    1    2 1
     2    1   21 1
     3    1   22 1
     4    1   23 1
     5    2   11 1
     6    2    3 1
     7    2   24 1
     8    3    4 1
     9    3   14 1
    10    3   25 1
    11    4    5 1
    12    5   10 ar
    13    5    6 ar
    14    6    7 ar
    15    6   26 1
    16    7    8 ar
    17    7   27 1
    18    8    9 ar
    19    8   13 1
    20    9   10 ar
    21    9   28 1
    22   10   11 1
    23   11   12 2
    24   13   29 1
    25   14   19 ar
    26   14   15 ar
    27   15   16 ar
    28   15   30 1
    29   16   17 ar
    30   16   31 1
    31   17   18 ar
    32   17   20 1
    33   18   19 ar
    34   18   32 1
    35   19   33 1
    36   20   34 1
@<TRIPOS>MOLECULE
CHEMBL113704__2
   34    36     0     0     0
SMALL
USER_CHARGES

@<TRIPOS>ATOM
      1 C1         -0.0187    1.5258    0.0104 C.3       1 <0>        -0.1418
      2 C2          0.0021   -0.0041    0.0020 C.3       1 <0>        -0.1607
      3 C3          0.7687   -0.5101   -1.2287 C.3       1 <0>         0.1481
      4 O1          2.1130   -0.0331   -1.1771 O.3       1 <0>        -0.2983
      5 C4          2.8394   -0.2539   -0.0556 C.ar      1 <0>         0.1732
      6 C5          4.2264   -0.2432   -0.1150 C.ar      1 <0>        -0.1426
      7 C6          4.9710   -0.4620    1.0260 C.ar      1 <0>        -0.0743
      8 C7          4.3465   -0.6947    2.2463 C.ar      1 <0>         0.0629
      9 C8          2.9661   -0.7111    2.3261 C.ar      1 <0>        -0.0519
     10 C9          2.2070   -0.4936    1.1745 C.ar      1 <0>        -0.2332
     11 C10         0.7346   -0.5182    1.2286 C.2       1 <0>         0.4053
     12 O2          0.1387   -0.9275    2.2027 O.2       1 <0>        -0.4350
     13 O3          5.0940   -0.9068    3.3623 O.3       1 <0>        -0.4928
     14 C11         0.1022   -0.0011   -2.4808 C.ar      1 <0>        -0.0991
     15 C12         0.4188    1.2526   -2.9703 C.ar      1 <0>        -0.0716
     16 C13        -0.1911    1.7218   -4.1176 C.ar      1 <0>        -0.1472
     17 C14        -1.1217    0.9336   -4.7790 C.ar      1 <0>         0.1162
     18 C15        -1.4374   -0.3242   -4.2860 C.ar      1 <0>        -0.1442
     19 C16        -0.8208   -0.7908   -3.1412 C.ar      1 <0>        -0.0850
     20 O4         -1.7235    1.3930   -5.9075 O.3       1 <0>        -0.4992
     21 H1          1.0039    1.9031    0.0027 H         1 <0>         0.0666
     22 H2         -0.5459    1.8868   -0.8726 H         1 <0>         0.0793
     23 H3         -0.5289    1.8773    0.9072 H         1 <0>         0.0675
     24 H4         -1.0176   -0.3890   -0.0100 H         1 <0>         0.1188
     25 H5          0.7695   -1.6001   -1.2340 H         1 <0>         0.0895
     26 H6          4.7238   -0.0635   -1.0566 H         1 <0>         0.1453
     27 H7          6.0496   -0.4527    0.9705 H         1 <0>         0.1431
     28 H8          2.4784   -0.8917    3.2727 H         1 <0>         0.1430
     29 H9          5.3097   -0.1004    3.8504 H         1 <0>         0.3914
     30 H10         1.1434    1.8658   -2.4551 H         1 <0>         0.1346
     31 H11         0.0561    2.7014   -4.4992 H         1 <0>         0.1329
     32 H12        -2.1616   -0.9396   -4.7990 H         1 <0>         0.1340
     33 H13        -1.0630   -1.7717   -2.7595 H         1 <0>         0.1310
     34 H14        -1.2516    1.1729   -6.7224 H         1 <0>         0.3943
@<TRIPOS>BOND
     1    1    2 1
     2    1   21 1
     3    1   22 1
     4    1   23 1
     5    2   11 1
     6    2    3 1
     7    2   24 1
     8    3    4 1
     9    3   14 1
    10    3   25 1
    11    4    5 1
    12    5   10 ar
    13    5    6 ar
    14    6    7 ar
    15    6   26 1
    16    7    8 ar
    17    7   27 1
    18    8    9 ar
    19    8   13 1
    20    9   10 ar
    21    9   28 1
    22   10   11 1
    23   11   12 2
    24   13   29 1
    25   14   19 ar
    26   14   15 ar
    27   15   16 ar
    28   15   30 1
    29   16   17 ar
    30   16   31 1
    31   17   18 ar
    32   17   20 1
    33   18   19 ar
    34   18   32 1
    35   19   33 1
    36   20   34 1
@<TRIPOS>MOLECULE
CHEMBL113704__3
   34    36     0     0     0
SMALL
USER_CHARGES

@<TRIPOS>ATOM
      1 C1          0.1362    1.5255    0.0966 C.3       1 <0>        -0.1401
      2 C2          0.1566   -0.0044    0.0858 C.3       1 <0>        -0.1628
      3 C3          0.7687   -0.5101   -1.2287 C.3       1 <0>         0.1490
      4 O1          2.1091   -0.0323   -1.3404 O.3       1 <0>        -0.2946
      5 C4          2.9662   -0.2526   -0.3153 C.ar      1 <0>         0.1703
      6 C5          4.3357   -0.2411   -0.5424 C.ar      1 <0>        -0.1487
      7 C6          5.2133   -0.4593    0.4999 C.ar      1 <0>        -0.0753
      8 C7          4.7415   -0.6922    1.7869 C.ar      1 <0>         0.0639
      9 C8          3.3810   -0.7094    2.0335 C.ar      1 <0>        -0.0523
     10 C9          2.4878   -0.4925    0.9824 C.ar      1 <0>        -0.2261
     11 C10         1.0327   -0.5179    1.2147 C.2       1 <0>         0.4084
     12 O2          0.5596   -0.9275    2.2538 O.2       1 <0>        -0.4356
     13 O3          5.6189   -0.9038    2.8041 O.3       1 <0>        -0.4926
     14 C11         0.7698   -2.0171   -1.2360 C.ar      1 <0>        -0.1441
     15 C12        -0.4264   -2.7084   -1.1814 C.ar      1 <0>        -0.0870
     16 C13        -0.4281   -4.0898   -1.1874 C.ar      1 <0>        -0.1417
     17 C14         0.7718   -4.7835   -1.2488 C.ar      1 <0>         0.1146
     18 C15         1.9706   -4.0876   -1.3040 C.ar      1 <0>        -0.1402
     19 C16         1.9667   -2.7061   -1.3029 C.ar      1 <0>        -0.0892
     20 O4          0.7728   -6.1425   -1.2544 O.3       1 <0>        -0.4980
     21 H1          1.1500    1.9033   -0.0350 H         1 <0>         0.0679
     22 H2         -0.4944    1.8861   -0.7160 H         1 <0>         0.0775
     23 H3         -0.2618    1.8768    1.0486 H         1 <0>         0.0686
     24 H4         -0.8568   -0.3899    0.1975 H         1 <0>         0.1183
     25 H5          0.1802   -0.1423   -2.0692 H         1 <0>         0.1435
     26 H6          4.7153   -0.0612   -1.5374 H         1 <0>         0.1459
     27 H7          6.2772   -0.4494    0.3141 H         1 <0>         0.1430
     28 H8          3.0117   -0.8902    3.0322 H         1 <0>         0.1422
     29 H9          5.8917   -0.0972    3.2624 H         1 <0>         0.3912
     30 H10        -1.3602   -2.1679   -1.1336 H         1 <0>         0.1317
     31 H11        -1.3627   -4.6293   -1.1441 H         1 <0>         0.1340
     32 H12         2.9060   -4.6253   -1.3518 H         1 <0>         0.1324
     33 H13         2.8995   -2.1638   -1.3503 H         1 <0>         0.1319
     34 H14         0.7300   -6.5322   -2.1384 H         1 <0>         0.3936
@<TRIPOS>BOND
     1    1    2 1
     2    1   21 1
     3    1   22 1
     4    1   23 1
     5    2   11 1
     6    2    3 1
     7    2   24 1
     8    3    4 1
     9    3   14 1
    10    3   25 1
    11    4    5 1
    12    5   10 ar
    13    5    6 ar
    14    6    7 ar
    15    6   26 1
    16    7    8 ar
    17    7   27 1
    18    8    9 ar
    19    8   13 1
    20    9   10 ar
    21    9   28 1
    22   10   11 1
    23   11   12 2
    24   13   29 1
    25   14   19 ar
    26   14   15 ar
    27   15   16 ar
    28   15   30 1
    29   16   17 ar
    30   16   31 1
    31   17   18 ar
    32   17   20 1
    33   18   19 ar
    34   18   32 1
    35   19   33 1
    36   20   34 1
@<TRIPOS>MOLECULE
CHEMBL426073
   42    45     0     0     0
SMALL
USER_CHARGES

@<TRIPOS>ATOM
      1 C1         -0.0168    1.3910    0.0097 C.ar      1 <0>        -0.0765
      2 C2          1.1691    2.0950    0.0021 C.ar      1 <0>        -0.1419
      3 C3          2.3805    1.4174   -0.0131 C.ar      1 <0>         0.1154
      4 C4          2.4034    0.0295   -0.0207 C.ar      1 <0>        -0.1418
      5 C5          1.2217   -0.6816   -0.0133 C.ar      1 <0>        -0.0773
      6 C6          0.0021   -0.0041    0.0020 C.ar      1 <0>        -0.0238
      7 C7         -1.2688   -0.7636    0.0106 C.2       1 <0>        -0.1265
      8 C8         -2.2245   -0.7820    1.0445 C.2       1 <0>         0.1802
      9 N1         -3.2179   -1.5730    0.6844 N.2       1 <0>        -0.2605
     10 N2         -2.9509   -2.0959   -0.5857 N.pl3     1 <0>        -0.2902
     11 C9         -1.7476   -1.5926   -1.0097 C.2       1 <0>         0.2575
     12 N3         -1.2517   -1.9286   -2.2053 N.2       1 <0>        -0.3640
     13 C10        -1.9055   -2.7436   -3.0007 C.2       1 <0>         0.1122
     14 C11        -3.1404   -3.2762   -2.6051 C.2       1 <0>        -0.1290
     15 C12        -3.6491   -2.9492   -1.3915 C.2       1 <0>         0.1084
     16 C13        -4.9758   -3.5071   -0.9446 C.3       1 <0>         0.5274
     17 F1         -5.4864   -4.3488   -1.9385 F         1 <0>        -0.1528
     18 F2         -4.8014   -4.2341    0.2379 F         1 <0>        -0.1518
     19 F3         -5.8711   -2.4562   -0.7182 F         1 <0>        -0.1523
     20 C14        -1.3266   -3.1072   -4.3437 C.3       1 <0>         0.5322
     21 F4         -0.0987   -2.4585   -4.5134 F         1 <0>        -0.1496
     22 F5         -1.1356   -4.4916   -4.4099 F         1 <0>        -0.1577
     23 F6         -2.2079   -2.7092   -5.3547 F         1 <0>        -0.1576
     24 C15        -2.1307   -0.0375    2.3233 C.ar      1 <0>        -0.0444
     25 C16        -0.8908    0.1523    2.9318 C.ar      1 <0>        -0.0606
     26 C17        -0.8069    0.8450    4.1211 C.ar      1 <0>        -0.1455
     27 C18        -1.9555    1.3533    4.7127 C.ar      1 <0>         0.1296
     28 C19        -3.1917    1.1660    4.1092 C.ar      1 <0>        -0.1473
     29 C20        -3.2816    0.4791    2.9169 C.ar      1 <0>        -0.0622
     30 O1         -1.8696    2.0351    5.8848 O.3       1 <0>        -0.4976
     31 O2          3.5473    2.1147   -0.0209 O.3       1 <0>        -0.4986
     32 H1         -0.9589    1.9189    0.0260 H         1 <0>         0.1270
     33 H2          1.1553    3.1749    0.0077 H         1 <0>         0.1327
     34 H3          3.3478   -0.4942   -0.0329 H         1 <0>         0.1331
     35 H4          1.2403   -1.7614   -0.0196 H         1 <0>         0.1259
     36 H5         -3.6789   -3.9466   -3.2585 H         1 <0>         0.1957
     37 H6          0.0030   -0.2432    2.4723 H         1 <0>         0.1345
     38 H7          0.1533    0.9921    4.5932 H         1 <0>         0.1370
     39 H8         -4.0834    1.5626    4.5718 H         1 <0>         0.1372
     40 H9         -4.2430    0.3375    2.4457 H         1 <0>         0.1346
     41 H10        -1.7407    2.9874    5.7774 H         1 <0>         0.3961
     42 H11         3.8935    2.3121    0.8602 H         1 <0>         0.3927
@<TRIPOS>BOND
     1    1    6 ar
     2    1    2 ar
     3    1   32 1
     4    2    3 ar
     5    2   33 1
     6    3    4 ar
     7    3   31 1
     8    4    5 ar
     9    4   34 1
    10    5    6 ar
    11    5   35 1
    12    6    7 1
    13    7   11 2
    14    7    8 1
    15    8    9 2
    16    8   24 1
    17    9   10 1
    18   10   15 1
    19   10   11 1
    20   11   12 1
    21   12   13 2
    22   13   14 1
    23   13   20 1
    24   14   15 2
    25   14   36 1
    26   15   16 1
    27   16   17 1
    28   16   18 1
    29   16   19 1
    30   20   21 1
    31   20   22 1
    32   20   23 1
    33   24   29 ar
    34   24   25 ar
    35   25   26 ar
    36   25   37 1
    37   26   27 ar
    38   26   38 1
    39   27   28 ar
    40   27   30 1
    41   28   29 ar
    42   28   39 1
    43   29   40 1
    44   30   41 1
    45   31   42 1
@<TRIPOS>MOLECULE
CHEMBL316292
   64    68     0     0     0
SMALL
USER_CHARGES

@<TRIPOS>ATOM
      1 C1          7.7359    1.2536   -0.2377 C.ar      1 <0>        -0.0938
      2 C2          7.5532    0.1304    0.5493 C.ar      1 <0>        -0.1247
      3 C3          6.3120   -0.4668    0.6268 C.ar      1 <0>        -0.1015
      4 C4          5.2394    0.0645   -0.0910 C.ar      1 <0>        -0.1336
      5 C5          5.4305    1.1977   -0.8831 C.ar      1 <0>        -0.0643
      6 C6          6.6768    1.7852   -0.9518 C.ar      1 <0>        -0.1188
      7 C7          3.9065   -0.5707   -0.0131 C.2       1 <0>         0.5704
      8 O1          2.9136    0.1158    0.1293 O.2       1 <0>        -0.5206
      9 N1          3.7926   -1.9108   -0.1000 N.am      1 <0>        -0.6043
     10 C8          2.4748   -2.5662   -0.1385 C.3       1 <0>         0.1017
     11 C9          2.3322   -3.2544   -1.4951 C.3       1 <0>        -0.1003
     12 C10         3.5657   -4.0539   -1.8231 C.ar      1 <0>        -0.0451
     13 C11         3.4470   -5.0574   -2.7759 C.ar      1 <0>        -0.1449
     14 C12         4.5438   -5.8230   -3.1316 C.ar      1 <0>         0.1180
     15 C13         5.7722   -5.5849   -2.5317 C.ar      1 <0>        -0.1434
     16 C14         5.8870   -4.5910   -1.5833 C.ar      1 <0>        -0.0928
     17 C15         4.7845   -3.8270   -1.2232 C.ar      1 <0>        -0.1026
     18 C16         4.9764   -2.7743   -0.1660 C.3       1 <0>         0.2164
     19 C17         5.1846   -3.4427    1.1685 C.ar      1 <0>        -0.1157
     20 C18         6.3640   -4.1167    1.4263 C.ar      1 <0>        -0.0680
     21 C19         6.5571   -4.7306    2.6487 C.ar      1 <0>        -0.1351
     22 C20         5.5665   -4.6701    3.6182 C.ar      1 <0>         0.1159
     23 C21         4.3842   -3.9928    3.3572 C.ar      1 <0>        -0.1976
     24 C22         4.1981   -3.3761    2.1351 C.ar      1 <0>        -0.0715
     25 O2          5.7539   -5.2736    4.8213 O.3       1 <0>        -0.3275
     26 C23         4.6914   -5.1704    5.7713 C.3       1 <0>         0.0268
     27 C24         5.0819   -5.9056    7.0550 C.3       1 <0>         0.0039
     28 N2          6.2273   -5.2288    7.6779 N.4       1 <0>        -0.3956
     29 C25         5.8164   -3.8991    8.1967 C.3       1 <0>        -0.0107
     30 C26         6.8946   -3.5865    9.2645 C.3       1 <0>        -0.1446
     31 C27         7.1572   -4.9686    9.9056 C.3       1 <0>        -0.1450
     32 C28         6.6939   -5.9941    8.8544 C.3       1 <0>        -0.0087
     33 O3          4.4181   -6.8038   -4.0638 O.3       1 <0>        -0.4985
     34 H1          8.7086    1.7200   -0.2914 H         1 <0>         0.1303
     35 H2          8.3841   -0.2799    1.1039 H         1 <0>         0.1289
     36 H3          6.1708   -1.3437    1.2412 H         1 <0>         0.1292
     37 H4          4.6047    1.6135   -1.4412 H         1 <0>         0.1327
     38 H5          6.8261    2.6621   -1.5643 H         1 <0>         0.1337
     39 H6          2.4073   -3.3059    0.6592 H         1 <0>         0.0813
     40 H7          1.6885   -1.8208   -0.0186 H         1 <0>         0.1061
     41 H8          1.4695   -3.9202   -1.4704 H         1 <0>         0.0932
     42 H9          2.1791   -2.4991   -2.2659 H         1 <0>         0.0880
     43 H10         2.4910   -5.2416   -3.2435 H         1 <0>         0.1319
     44 H11         6.6338   -6.1754   -2.8061 H         1 <0>         0.1335
     45 H12         6.8428   -4.4048   -1.1162 H         1 <0>         0.1277
     46 H13         5.8515   -2.1719   -0.4096 H         1 <0>         0.1242
     47 H14         7.1348   -4.1635    0.6713 H         1 <0>         0.1385
     48 H15         7.4782   -5.2575    2.8493 H         1 <0>         0.1363
     49 H16         3.6116   -3.9443    4.1102 H         1 <0>         0.1285
     50 H17         3.2797   -2.8450    1.9330 H         1 <0>         0.1392
     51 H18         4.5059   -4.1201    5.9963 H         1 <0>         0.0856
     52 H19         3.7883   -5.6181    5.3566 H         1 <0>         0.1085
     53 H20         4.2389   -5.9032    7.7459 H         1 <0>         0.1488
     54 H21         5.3533   -6.9340    6.8165 H         1 <0>         0.1416
     55 H22         5.8347   -3.1535    7.4018 H         1 <0>         0.1332
     56 H23         4.8277   -3.9528    8.6525 H         1 <0>         0.1349
     57 H24         7.8001   -3.2000    8.7967 H         1 <0>         0.0984
     58 H25         6.5119   -2.8843   10.0051 H         1 <0>         0.1175
     59 H26         8.2199   -5.0935   10.1133 H         1 <0>         0.1058
     60 H27         6.5765   -5.0772   10.8216 H         1 <0>         0.1045
     61 H28         5.8766   -6.5935    9.2554 H         1 <0>         0.1315
     62 H29         7.5265   -6.6383    8.5719 H         1 <0>         0.1331
     63 H30         4.5799   -6.5081   -4.9701 H         1 <0>         0.3960
     64 H31         6.9767   -5.1263    7.0100 H         1 <0>         0.4334
@<TRIPOS>BOND
     1    1    6 ar
     2    1    2 ar
     3    1   34 1
     4    2    3 ar
     5    2   35 1
     6    3    4 ar
     7    3   36 1
     8    4    5 ar
     9    4    7 1
    10    5    6 ar
    11    5   37 1
    12    6   38 1
    13    7    8 2
    14    7    9 am
    15    9   18 1
    16    9   10 1
    17   10   11 1
    18   10   39 1
    19   10   40 1
    20   11   12 1
    21   11   41 1
    22   11   42 1
    23   12   17 ar
    24   12   13 ar
    25   13   14 ar
    26   13   43 1
    27   14   15 ar
    28   14   33 1
    29   15   16 ar
    30   15   44 1
    31   16   17 ar
    32   16   45 1
    33   17   18 1
    34   18   19 1
    35   18   46 1
    36   19   24 ar
    37   19   20 ar
    38   20   21 ar
    39   20   47 1
    40   21   22 ar
    41   21   48 1
    42   22   23 ar
    43   22   25 1
    44   23   24 ar
    45   23   49 1
    46   24   50 1
    47   25   26 1
    48   26   27 1
    49   26   51 1
    50   26   52 1
    51   27   28 1
    52   27   53 1
    53   27   54 1
    54   28   32 1
    55   28   29 1
    56   28   64 1
    57   29   30 1
    58   29   55 1
    59   29   56 1
    60   30   31 1
    61   30   57 1
    62   30   58 1
    63   31   32 1
    64   31   59 1
    65   31   60 1
    66   32   61 1
    67   32   62 1
    68   33   63 1
@<TRIPOS>MOLECULE
CHEMBL316292__1
   64    68     0     0     0
SMALL
USER_CHARGES

@<TRIPOS>ATOM
      1 C1          0.8978    1.5668    2.7568 C.ar      1 <0>        -0.0925
      2 C2          2.1816    1.7356    3.2444 C.ar      1 <0>        -0.1234
      3 C3          3.2261    1.0082    2.7121 C.ar      1 <0>        -0.0646
      4 C4          2.9854    0.1006    1.6794 C.ar      1 <0>        -0.1342
      5 C5          1.6879   -0.0648    1.1921 C.ar      1 <0>        -0.1039
      6 C6          0.6524    0.6688    1.7333 C.ar      1 <0>        -0.1231
      7 C7          4.1000   -0.6818    1.1038 C.2       1 <0>         0.5661
      8 O1          5.1975   -0.1747    0.9786 O.2       1 <0>        -0.5138
      9 N1          3.8991   -1.9575    0.7179 N.am      1 <0>        -0.6032
     10 C8          2.5781   -2.5957    0.8414 C.3       1 <0>         0.0806
     11 C9          2.0798   -2.9195   -0.5661 C.3       1 <0>        -0.1032
     12 C10         3.1559   -3.5969   -1.3733 C.ar      1 <0>        -0.0488
     13 C11         2.7608   -4.3277   -2.4864 C.ar      1 <0>        -0.1451
     14 C12         3.6995   -4.9667   -3.2777 C.ar      1 <0>         0.1176
     15 C13         5.0463   -4.8752   -2.9565 C.ar      1 <0>        -0.1439
     16 C14         5.4360   -4.1525   -1.8491 C.ar      1 <0>        -0.0849
     17 C15         4.4928   -3.5163   -1.0526 C.ar      1 <0>        -0.1052
     18 C16         4.9863   -2.7635    0.1526 C.3       1 <0>         0.2317
     19 C17         6.1222   -1.8598   -0.2524 C.ar      1 <0>        -0.0635
     20 C18         5.9340   -0.9179   -1.2470 C.ar      1 <0>        -0.0372
     21 C19         6.9738   -0.0886   -1.6203 C.ar      1 <0>        -0.1345
     22 C20         8.2076   -0.2010   -0.9960 C.ar      1 <0>         0.1104
     23 C21         8.3938   -1.1465    0.0020 C.ar      1 <0>        -0.1952
     24 C22         7.3493   -1.9700    0.3753 C.ar      1 <0>        -0.0705
     25 O2          9.2322    0.6134   -1.3618 O.3       1 <0>        -0.3307
     26 C23        10.4741    0.4414   -0.6761 C.3       1 <0>         0.0285
     27 C24        11.4992    1.4387   -1.2198 C.3       1 <0>         0.0040
     28 N2         11.0669    2.8066   -0.9038 N.4       1 <0>        -0.3955
     29 C25        11.1509    3.0449    0.5599 C.3       1 <0>        -0.0102
     30 C26        11.2277    4.5889    0.6638 C.3       1 <0>        -0.1446
     31 C27        12.1027    4.9740   -0.5511 C.3       1 <0>        -0.1448
     32 C28        11.9831    3.7874   -1.5252 C.3       1 <0>        -0.0086
     33 O3          3.3038   -5.6809   -4.3640 O.3       1 <0>        -0.4973
     34 H1          0.0830    2.1354    3.1801 H         1 <0>         0.1303
     35 H2          2.3665    2.4384    4.0433 H         1 <0>         0.1310
     36 H3          4.2278    1.1411    3.0933 H         1 <0>         0.1293
     37 H4          1.4951   -0.7652    0.3930 H         1 <0>         0.1385
     38 H5         -0.3519    0.5418    1.3571 H         1 <0>         0.1323
     39 H6          2.6650   -3.5139    1.4222 H         1 <0>         0.0830
     40 H7          1.8831   -1.9133    1.3308 H         1 <0>         0.1180
     41 H8          1.2146   -3.5790   -0.4972 H         1 <0>         0.0967
     42 H9          1.7863   -1.9954   -1.0640 H         1 <0>         0.0847
     43 H10         1.7125   -4.3977   -2.7366 H         1 <0>         0.1323
     44 H11         5.7855   -5.3678   -3.5708 H         1 <0>         0.1323
     45 H12         6.4841   -4.0805   -1.5987 H         1 <0>         0.1268
     46 H13         5.3379   -3.4739    0.9007 H         1 <0>         0.0943
     47 H14         4.9733   -0.8308   -1.7327 H         1 <0>         0.1193
     48 H15         6.8264    0.6464   -2.3977 H         1 <0>         0.1256
     49 H16         9.3534   -1.2360    0.4895 H         1 <0>         0.1226
     50 H17         7.4924   -2.7032    1.1552 H         1 <0>         0.1242
     51 H18        10.3278    0.6156    0.3899 H         1 <0>         0.0837
     52 H19        10.8375   -0.5744   -0.8318 H         1 <0>         0.1064
     53 H20        12.4695    1.2490   -0.7608 H         1 <0>         0.1473
     54 H21        11.5800    1.3238   -2.3008 H         1 <0>         0.1403
     55 H22        10.2596    2.6694    1.0626 H         1 <0>         0.1338
     56 H23        12.0491    2.5863    0.9735 H         1 <0>         0.1344
     57 H24        10.2349    5.0310    0.5798 H         1 <0>         0.0983
     58 H25        11.7074    4.8894    1.5953 H         1 <0>         0.1170
     59 H26        11.7248    5.8847   -1.0160 H         1 <0>         0.1052
     60 H27        13.1397    5.1078   -0.2433 H         1 <0>         0.1041
     61 H28        12.9622    3.3343   -1.6805 H         1 <0>         0.1310
     62 H29        11.5733    4.1275   -2.4763 H         1 <0>         0.1324
     63 H30         3.2594   -5.1637   -5.1799 H         1 <0>         0.3943
     64 H31        10.1235    2.9575   -1.2283 H         1 <0>         0.4341
@<TRIPOS>BOND
     1    1    6 ar
     2    1    2 ar
     3    1   34 1
     4    2    3 ar
     5    2   35 1
     6    3    4 ar
     7    3   36 1
     8    4    5 ar
     9    4    7 1
    10    5    6 ar
    11    5   37 1
    12    6   38 1
    13    7    8 2
    14    7    9 am
    15    9   18 1
    16    9   10 1
    17   10   11 1
    18   10   39 1
    19   10   40 1
    20   11   12 1
    21   11   41 1
    22   11   42 1
    23   12   17 ar
    24   12   13 ar
    25   13   14 ar
    26   13   43 1
    27   14   15 ar
    28   14   33 1
    29   15   16 ar
    30   15   44 1
    31   16   17 ar
    32   16   45 1
    33   17   18 1
    34   18   19 1
    35   18   46 1
    36   19   24 ar
    37   19   20 ar
    38   20   21 ar
    39   20   47 1
    40   21   22 ar
    41   21   48 1
    42   22   23 ar
    43   22   25 1
    44   23   24 ar
    45   23   49 1
    46   24   50 1
    47   25   26 1
    48   26   27 1
    49   26   51 1
    50   26   52 1
    51   27   28 1
    52   27   53 1
    53   27   54 1
    54   28   32 1
    55   28   29 1
    56   28   64 1
    57   29   30 1
    58   29   55 1
    59   29   56 1
    60   30   31 1
    61   30   57 1
    62   30   58 1
    63   31   32 1
    64   31   59 1
    65   31   60 1
    66   32   61 1
    67   32   62 1
    68   33   63 1
@<TRIPOS>MOLECULE
CHEMBL389394
   38    41     0     0     0
SMALL
USER_CHARGES

@<TRIPOS>ATOM
      1 C1          0.0655    1.4937    0.5959 C.ar      1 <0>        -0.1721
      2 C2          1.2272    2.1663    0.3497 C.ar      1 <0>        -0.0232
      3 C3          2.4110    1.4558    0.1376 C.ar      1 <0>        -0.1633
      4 C4          2.4019    0.0492    0.1785 C.ar      1 <0>         0.1450
      5 C5          1.2087   -0.6210    0.4303 C.ar      1 <0>        -0.1683
      6 C6          0.0490    0.1008    0.6378 C.ar      1 <0>         0.1618
      7 O1         -1.1168   -0.5526    0.8846 O.3       1 <0>        -0.4939
      8 N1          3.6897   -0.3658   -0.0622 N.pl3     1 <0>        -0.3608
      9 N2          4.5064    0.7531   -0.2532 N.2       1 <0>        -0.1933
     10 C7          3.7961    1.8503   -0.1446 C.2       1 <0>         0.1489
     11 C8          4.3004    3.2362   -0.2818 C.ar      1 <0>        -0.0579
     12 C9          3.9503    4.2041    0.6587 C.ar      1 <0>        -0.0592
     13 C10         4.4212    5.4935    0.5283 C.ar      1 <0>        -0.1524
     14 C11         5.2440    5.8321   -0.5385 C.ar      1 <0>         0.1382
     15 C12         5.5968    4.8755   -1.4788 C.ar      1 <0>        -0.1743
     16 C13         5.1343    3.5768   -1.3527 C.ar      1 <0>         0.1579
     17 O2          5.4841    2.6371   -2.2693 O.3       1 <0>        -0.4829
     18 O3          5.7043    7.1046   -0.6614 O.3       1 <0>        -0.4964
     19 C14         4.1164   -1.6979   -0.1083 C.ar      1 <0>         0.1846
     20 C15         3.4089   -2.6298   -0.8565 C.ar      1 <0>        -0.1088
     21 C16         3.8331   -3.9445   -0.8999 C.ar      1 <0>        -0.0150
     22 C17         4.9614   -4.3328   -0.1983 C.ar      1 <0>        -0.0967
     23 C18         5.6676   -3.4077    0.5478 C.ar      1 <0>        -0.0809
     24 C19         5.2526   -2.0899    0.5900 C.ar      1 <0>        -0.0314
     25 Cl1         6.1448   -0.9272    1.5205 Cl        1 <0>        -0.0309
     26 Cl2         2.9494   -5.1102   -1.8348 Cl        1 <0>        -0.0453
     27 H1         -0.8475    2.0455    0.7640 H         1 <0>         0.1390
     28 H2          1.2312    3.2458    0.3186 H         1 <0>         0.1371
     29 H3          1.1893   -1.7003    0.4638 H         1 <0>         0.1347
     30 H4         -1.6242   -0.7657    0.0895 H         1 <0>         0.3974
     31 H5          3.3103    3.9441    1.4888 H         1 <0>         0.1379
     32 H6          4.1494    6.2423    1.2575 H         1 <0>         0.1394
     33 H7          6.2361    5.1429   -2.3072 H         1 <0>         0.1412
     34 H8          4.8773    2.5744   -3.0195 H         1 <0>         0.3925
     35 H9          6.5480    7.2624   -0.2159 H         1 <0>         0.3972
     36 H10         2.5281   -2.3276   -1.4035 H         1 <0>         0.1481
     37 H11         5.2905   -5.3609   -0.2336 H         1 <0>         0.1519
     38 H12         6.5471   -3.7140    1.0946 H         1 <0>         0.1544
@<TRIPOS>BOND
     1    1    6 ar
     2    1    2 ar
     3    1   27 1
     4    2    3 ar
     5    2   28 1
     6    3   10 1
     7    3    4 ar
     8    4    5 ar
     9    4    8 1
    10    5    6 ar
    11    5   29 1
    12    6    7 1
    13    7   30 1
    14    8    9 1
    15    8   19 1
    16    9   10 2
    17   10   11 1
    18   11   16 ar
    19   11   12 ar
    20   12   13 ar
    21   12   31 1
    22   13   14 ar
    23   13   32 1
    24   14   15 ar
    25   14   18 1
    26   15   16 ar
    27   15   33 1
    28   16   17 1
    29   17   34 1
    30   18   35 1
    31   19   24 ar
    32   19   20 ar
    33   20   21 ar
    34   20   36 1
    35   21   22 ar
    36   21   26 1
    37   22   23 ar
    38   22   37 1
    39   23   24 ar
    40   23   38 1
    41   24   25 1
@<TRIPOS>MOLECULE
CHEMBL372808
   67    71     0     0     0
SMALL
USER_CHARGES

@<TRIPOS>ATOM
      1 C1         -0.0184    1.5028    0.0103 C.3       1 <0>        -0.0837
      2 C2          0.0021   -0.0041    0.0020 C.2       1 <0>        -0.1408
      3 C3          0.0091   -0.8675   -1.1778 C.ar      1 <0>        -0.0877
      4 C4         -0.0004   -0.6231   -2.5546 C.ar      1 <0>        -0.0921
      5 C5          0.0107   -1.6853   -3.4358 C.ar      1 <0>         0.0784
      6 C6          0.0312   -2.9935   -2.9582 C.ar      1 <0>        -0.1155
      7 C7          0.0407   -3.2464   -1.6044 C.ar      1 <0>        -0.1168
      8 C8          0.0298   -2.1908   -0.6991 C.ar      1 <0>         0.1036
      9 N1          0.0350   -2.1304    0.6795 N.pl3     1 <0>        -0.4728
     10 C9          0.0234   -0.8169    1.0876 C.2       1 <0>         0.1147
     11 C10         0.0303   -0.3610    2.4942 C.ar      1 <0>        -0.0353
     12 C11        -0.8022   -0.9735    3.4324 C.ar      1 <0>        -0.0983
     13 C12        -0.7930   -0.5455    4.7428 C.ar      1 <0>        -0.1410
     14 C13         0.0430    0.4934    5.1299 C.ar      1 <0>         0.1137
     15 C14         0.8723    1.1056    4.1995 C.ar      1 <0>        -0.1409
     16 C15         0.8734    0.6793    2.8885 C.ar      1 <0>        -0.0776
     17 O1          0.0492    0.9124    6.4224 O.3       1 <0>        -0.4955
     18 C16         0.0553   -3.2906    1.5738 C.3       1 <0>         0.1433
     19 C17         1.4829   -3.6679    1.8747 C.ar      1 <0>        -0.1314
     20 C18         2.1452   -4.5678    1.0603 C.ar      1 <0>        -0.0557
     21 C19         3.4538   -4.9158    1.3342 C.ar      1 <0>        -0.1413
     22 C20         4.1035   -4.3611    2.4273 C.ar      1 <0>         0.1228
     23 C21         3.4369   -3.4580    3.2427 C.ar      1 <0>        -0.2028
     24 C22         2.1301   -3.1094    2.9615 C.ar      1 <0>        -0.0534
     25 O2          5.3906   -4.7021    2.6992 O.3       1 <0>        -0.3230
     26 C23         5.9962   -4.0918    3.8406 C.3       1 <0>         0.0317
     27 C24         7.4342   -4.5942    3.9848 C.3       1 <0>         0.0390
     28 H1          7.9244   -4.0634    4.8009 H         1 <0>         0.1527
     29 C25         8.1956   -4.3415    2.6820 C.3       1 <0>        -0.1809
     30 N2          7.4231   -6.0344    4.2741 N.4       1 <0>        -0.3933
     31 C26         8.8074   -6.5214    4.5033 C.3       1 <0>        -0.0062
     32 C27         8.5953   -7.8225    5.3174 C.3       1 <0>        -0.1452
     33 C28         7.4037   -7.4654    6.2354 C.3       1 <0>        -0.1433
     34 C29         6.6901   -6.2963    5.5317 C.3       1 <0>        -0.0121
     35 O3          0.0011   -1.4537   -4.7757 O.3       1 <0>        -0.4960
     36 H2          1.0042    1.8801    0.0026 H         1 <0>         0.0656
     37 H3         -0.5455    1.8639   -0.8728 H         1 <0>         0.0682
     38 H4         -0.5286    1.8543    0.9071 H         1 <0>         0.0665
     39 H5         -0.0167    0.3908   -2.9262 H         1 <0>         0.1304
     40 H6          0.0394   -3.8175   -3.6563 H         1 <0>         0.1330
     41 H7          0.0563   -4.2650   -1.2457 H         1 <0>         0.1210
     42 H8         -1.4530   -1.7814    3.1320 H         1 <0>         0.1285
     43 H9         -1.4371   -1.0187    5.4692 H         1 <0>         0.1342
     44 H10         1.5208    1.9136    4.5043 H         1 <0>         0.1348
     45 H11         1.5224    1.1524    2.1665 H         1 <0>         0.1334
     46 H12         0.6888    0.4513    6.9822 H         1 <0>         0.3917
     47 H13        -0.4584   -3.0424    2.5026 H         1 <0>         0.1031
     48 H14        -0.4485   -4.1290    1.0928 H         1 <0>         0.0995
     49 H15         1.6390   -4.9994    0.2095 H         1 <0>         0.1348
     50 H16         3.9704   -5.6193    0.6982 H         1 <0>         0.1350
     51 H17         3.9405   -3.0249    4.0943 H         1 <0>         0.1277
     52 H18         1.6121   -2.4031    3.5934 H         1 <0>         0.1291
     53 H19         6.0005   -3.0092    3.7144 H         1 <0>         0.1068
     54 H20         5.4294   -4.3512    4.7348 H         1 <0>         0.0854
     55 H21         8.2039   -3.2729    2.4673 H         1 <0>         0.1054
     56 H22         9.2201   -4.6994    2.7847 H         1 <0>         0.0841
     57 H23         7.7054   -4.8723    1.8659 H         1 <0>         0.0897
     58 H24         9.3014   -6.7367    3.5558 H         1 <0>         0.1364
     59 H25         9.3800   -5.7954    5.0806 H         1 <0>         0.1344
     60 H26         8.3395   -8.6523    4.6586 H         1 <0>         0.0985
     61 H27         9.4808   -8.0565    5.9083 H         1 <0>         0.1178
     62 H28         6.7306   -8.3175    6.3302 H         1 <0>         0.1054
     63 H29         7.7621   -7.1543    7.2167 H         1 <0>         0.1046
     64 H30         6.7137   -5.4106    6.1666 H         1 <0>         0.1291
     65 H31         5.6586   -6.5702    5.3101 H         1 <0>         0.1300
     66 H32         0.8816   -1.3740   -5.1674 H         1 <0>         0.3877
     67 H33         6.9973   -6.5396    3.5115 H         1 <0>         0.4313
@<TRIPOS>BOND
     1    1    2 1
     2    1   36 1
     3    1   37 1
     4    1   38 1
     5    2   10 2
     6    2    3 1
     7    3    8 ar
     8    3    4 ar
     9    4    5 ar
    10    4   39 1
    11    5    6 ar
    12    5   35 1
    13    6    7 ar
    14    6   40 1
    15    7    8 ar
    16    7   41 1
    17    8    9 1
    18    9   10 1
    19    9   18 1
    20   10   11 1
    21   11   16 ar
    22   11   12 ar
    23   12   13 ar
    24   12   42 1
    25   13   14 ar
    26   13   43 1
    27   14   15 ar
    28   14   17 1
    29   15   16 ar
    30   15   44 1
    31   16   45 1
    32   17   46 1
    33   18   19 1
    34   18   47 1
    35   18   48 1
    36   19   24 ar
    37   19   20 ar
    38   20   21 ar
    39   20   49 1
    40   21   22 ar
    41   21   50 1
    42   22   23 ar
    43   22   25 1
    44   23   24 ar
    45   23   51 1
    46   24   52 1
    47   25   26 1
    48   26   27 1
    49   26   53 1
    50   26   54 1
    51   27   28 1
    52   27   29 1
    53   27   30 1
    54   29   55 1
    55   29   56 1
    56   29   57 1
    57   30   34 1
    58   30   31 1
    59   30   67 1
    60   31   32 1
    61   31   58 1
    62   31   59 1
    63   32   33 1
    64   32   60 1
    65   32   61 1
    66   33   34 1
    67   33   62 1
    68   33   63 1
    69   34   64 1
    70   34   65 1
    71   35   66 1
@<TRIPOS>MOLECULE
CHEMBL278233
   42    45     0     0     0
SMALL
USER_CHARGES

@<TRIPOS>ATOM
      1 C1         -0.0186    1.5224    0.0104 C.3       1 <0>        -0.1429
      2 C2          0.0021   -0.0041    0.0020 C.3       1 <0>        -0.1169
      3 C3         -1.4033   -0.5559    0.0592 C.3       1 <0>        -0.0980
      4 C4         -2.0131   -0.2240    1.4272 C.3       1 <0>        -0.1070
      5 C5         -1.1824   -0.8040    2.5678 C.3       1 <0>        -0.0392
      6 H1         -1.1913   -1.8981    2.4760 H         1 <0>         0.0777
      7 C6         -1.8066   -0.4352    3.8889 C.ar      1 <0>        -0.0786
      8 C7         -3.0268   -1.0225    4.2047 C.ar      1 <0>        -0.1008
      9 C8         -3.6553   -0.7411    5.3982 C.ar      1 <0>        -0.1471
     10 C9         -3.0659    0.1392    6.2942 C.ar      1 <0>         0.1037
     11 C10        -1.8522    0.7264    5.9802 C.ar      1 <0>        -0.1472
     12 C11        -1.2212    0.4380    4.7781 C.ar      1 <0>        -0.0575
     13 C12         0.0990    1.1110    4.5000 C.3       1 <0>        -0.0851
     14 C13         0.3629    1.1098    2.9878 C.3       1 <0>        -0.1146
     15 C14         0.2736   -0.3323    2.5086 C.3       1 <0>        -0.0616
     16 C15         0.8344   -0.6048    1.1522 C.3       1 <0>        -0.0731
     17 H2          0.8510   -1.7129    1.0142 H         1 <0>         0.0719
     18 C16         2.2395   -0.0970    0.8097 C.3       1 <0>        -0.1093
     19 C17         2.2756   -0.2586   -0.7377 C.3       1 <0>        -0.1849
     20 C18         0.8295   -0.4345   -1.1933 C.2       1 <0>         0.3756
     21 O1          0.4241   -0.8250   -2.2526 O.2       1 <0>        -0.4325
     22 O2         -3.6772    0.4230    7.4742 O.3       1 <0>        -0.5002
     23 H3          1.0032    1.8994    0.0522 H         1 <0>         0.0650
     24 H4         -0.5026    1.8842   -0.8968 H         1 <0>         0.0588
     25 H5         -0.5713    1.8735    0.8818 H         1 <0>         0.0776
     26 H6         -2.0114   -0.1077   -0.7317 H         1 <0>         0.0711
     27 H7         -1.3836   -1.6403   -0.0801 H         1 <0>         0.0657
     28 H8         -2.1015    0.8510    1.5495 H         1 <0>         0.0684
     29 H9         -3.0169   -0.6570    1.4735 H         1 <0>         0.0643
     30 H10        -3.4847   -1.7068    3.5060 H         1 <0>         0.1248
     31 H11        -4.6007   -1.2058    5.6361 H         1 <0>         0.1277
     32 H12        -1.3952    1.4141    6.6762 H         1 <0>         0.1269
     33 H13         0.0661    2.1378    4.8548 H         1 <0>         0.0774
     34 H14         0.8964    0.5682    5.0009 H         1 <0>         0.0786
     35 H15        -0.4050    1.7245    2.5184 H         1 <0>         0.0737
     36 H16         1.3509    1.5198    2.7934 H         1 <0>         0.0746
     37 H17         0.8392   -0.9514    3.2366 H         1 <0>         0.0712
     38 H18         2.3831    0.9370    1.1033 H         1 <0>         0.0817
     39 H19         2.9980   -0.7337    1.2727 H         1 <0>         0.0750
     40 H20         2.7087    0.6297   -1.1954 H         1 <0>         0.1011
     41 H21         2.8596   -1.1401   -1.0037 H         1 <0>         0.0933
     42 H22        -3.4290   -0.1684    8.1979 H         1 <0>         0.3906
@<TRIPOS>BOND
     1    1    2 1
     2    1   23 1
     3    1   24 1
     4    1   25 1
     5    2   16 1
     6    2   20 1
     7    2    3 1
     8    3    4 1
     9    3   26 1
    10    3   27 1
    11    4    5 1
    12    4   28 1
    13    4   29 1
    14    5    6 1
    15    5   15 1
    16    5    7 1
    17    7   12 ar
    18    7    8 ar
    19    8    9 ar
    20    8   30 1
    21    9   10 ar
    22    9   31 1
    23   10   11 ar
    24   10   22 1
    25   11   12 ar
    26   11   32 1
    27   12   13 1
    28   13   14 1
    29   13   33 1
    30   13   34 1
    31   14   15 1
    32   14   35 1
    33   14   36 1
    34   15   16 1
    35   15   37 1
    36   16   17 1
    37   16   18 1
    38   18   19 1
    39   18   38 1
    40   18   39 1
    41   19   20 1
    42   19   40 1
    43   19   41 1
    44   20   21 2
    45   22   42 1
@<TRIPOS>MOLECULE
CHEMBL278233__1
   42    45     0     0     0
SMALL
USER_CHARGES

@<TRIPOS>ATOM
      1 C1         -0.0187    1.5258    0.0104 C.3       1 <0>        -0.1441
      2 C2          0.0021   -0.0041    0.0020 C.3       1 <0>        -0.1261
      3 C3         -1.4074   -0.5256    0.1829 C.3       1 <0>        -0.0977
      4 C4         -1.9733    0.0969    1.4736 C.3       1 <0>        -0.1140
      5 C5         -1.0810   -0.2282    2.6627 C.3       1 <0>        -0.0432
      6 H1         -1.0782   -1.3101    2.7958 H         1 <0>         0.0788
      7 C6         -1.5931    0.3931    3.9301 C.ar      1 <0>        -0.0786
      8 C7         -2.9665    0.5118    4.0958 C.ar      1 <0>        -0.1029
      9 C8         -3.4900    1.0660    5.2445 C.ar      1 <0>        -0.1471
     10 C9         -2.6356    1.5075    6.2447 C.ar      1 <0>         0.1033
     11 C10        -1.2666    1.3928    6.0776 C.ar      1 <0>        -0.1480
     12 C11        -0.7400    0.8414    4.9170 C.ar      1 <0>        -0.0576
     13 C12         0.7595    0.7765    4.7929 C.3       1 <0>        -0.0825
     14 C13         1.1841   -0.1540    3.6577 C.3       1 <0>        -0.1134
     15 C14         0.3656    0.2227    2.4221 C.3       1 <0>        -0.0748
     16 C15         0.8620   -0.5119    1.1930 C.3       1 <0>        -0.0782
     17 H2          0.7512   -1.5883    1.3238 H         1 <0>         0.0848
     18 C16         2.2729   -0.1511    0.7109 C.3       1 <0>        -0.1112
     19 C17         2.2205   -0.5241   -0.7959 C.3       1 <0>        -0.1833
     20 C18         0.7513   -0.4835   -1.2046 C.2       1 <0>         0.3798
     21 O1          0.2870   -0.7771   -2.2801 O.2       1 <0>        -0.4385
     22 O2         -3.1409    2.0507    7.3833 O.3       1 <0>        -0.5004
     23 H3          1.0038    1.9031   -0.0041 H         1 <0>         0.0636
     24 H4         -0.5517    1.8867   -0.8692 H         1 <0>         0.0594
     25 H5         -0.5229    1.8774    0.9105 H         1 <0>         0.0807
     26 H6         -2.0218   -0.2335   -0.6688 H         1 <0>         0.0727
     27 H7         -1.3910   -1.6118    0.2726 H         1 <0>         0.0674
     28 H8         -2.0328    1.1787    1.3544 H         1 <0>         0.0719
     29 H9         -2.9724   -0.2993    1.6553 H         1 <0>         0.0695
     30 H10        -3.6309    0.1671    3.3173 H         1 <0>         0.1279
     31 H11        -4.5595    1.1563    5.3650 H         1 <0>         0.1277
     32 H12        -0.6018    1.7357    6.8566 H         1 <0>         0.1263
     33 H13         1.1449    1.7771    4.5970 H         1 <0>         0.0780
     34 H14         1.1795    0.4107    5.7299 H         1 <0>         0.0756
     35 H15         2.2463   -0.0219    3.4519 H         1 <0>         0.0737
     36 H16         0.9895   -1.1891    3.9385 H         1 <0>         0.0677
     37 H17         0.3966    1.2998    2.2579 H         1 <0>         0.0887
     38 H18         2.4651    0.9141    0.8393 H         1 <0>         0.0788
     39 H19         3.0235   -0.7463    1.2309 H         1 <0>         0.0784
     40 H20         2.7904    0.1988   -1.3795 H         1 <0>         0.0984
     41 H21         2.6224   -1.5261   -0.9467 H         1 <0>         0.0978
     42 H22        -3.3092    1.4071    8.0851 H         1 <0>         0.3905
@<TRIPOS>BOND
     1    1    2 1
     2    1   23 1
     3    1   24 1
     4    1   25 1
     5    2   16 1
     6    2   20 1
     7    2    3 1
     8    3    4 1
     9    3   26 1
    10    3   27 1
    11    4    5 1
    12    4   28 1
    13    4   29 1
    14    5    6 1
    15    5   15 1
    16    5    7 1
    17    7   12 ar
    18    7    8 ar
    19    8    9 ar
    20    8   30 1
    21    9   10 ar
    22    9   31 1
    23   10   11 ar
    24   10   22 1
    25   11   12 ar
    26   11   32 1
    27   12   13 1
    28   13   14 1
    29   13   33 1
    30   13   34 1
    31   14   15 1
    32   14   35 1
    33   14   36 1
    34   15   16 1
    35   15   37 1
    36   16   17 1
    37   16   18 1
    38   18   19 1
    39   18   38 1
    40   18   39 1
    41   19   20 1
    42   19   40 1
    43   19   41 1
    44   20   21 2
    45   22   42 1
@<TRIPOS>MOLECULE
CHEMBL278233__2
   42    45     0     0     0
SMALL
USER_CHARGES

@<TRIPOS>ATOM
      1 C1         -0.0187    1.5298    0.0105 C.3       1 <0>        -0.1381
      2 C2          0.0021   -0.0041    0.0020 C.3       1 <0>        -0.1150
      3 C3          0.6361   -0.4640   -1.2905 C.3       1 <0>        -0.1015
      4 C4          0.8536   -1.9741   -1.3002 C.3       1 <0>        -0.1131
      5 C5          1.7703   -2.3501   -0.1299 C.3       1 <0>        -0.0378
      6 H1          2.7177   -1.8162   -0.2205 H         1 <0>         0.0849
      7 C6          2.0198   -3.8378   -0.1855 C.ar      1 <0>        -0.0794
      8 C7          2.9501   -4.3029   -1.1066 C.ar      1 <0>        -0.0996
      9 C8          3.2162   -5.6515   -1.2142 C.ar      1 <0>        -0.1473
     10 C9          2.5492   -6.5509   -0.3947 C.ar      1 <0>         0.1033
     11 C10         1.6281   -6.0856    0.5269 C.ar      1 <0>        -0.1478
     12 C11         1.3645   -4.7263    0.6356 C.ar      1 <0>        -0.0571
     13 C12         0.3599   -4.2937    1.6694 C.3       1 <0>        -0.0824
     14 C13        -0.1188   -2.8656    1.4052 C.3       1 <0>        -0.1276
     15 C14         1.0979   -1.9730    1.1824 C.3       1 <0>        -0.0755
     16 C15         0.7483   -0.4947    1.2525 C.3       1 <0>        -0.0659
     17 H2          1.6460    0.1111    1.4399 H         1 <0>         0.0942
     18 C16        -0.3133   -0.2977    2.3693 C.3       1 <0>        -0.1175
     19 C17        -1.6739   -0.4919    1.6712 C.3       1 <0>        -0.1891
     20 C18        -1.4131   -0.5026    0.1757 C.2       1 <0>         0.3836
     21 O1         -2.1772   -0.8400   -0.6938 O.2       1 <0>        -0.4367
     22 O2          2.7994   -7.8827   -0.4981 O.3       1 <0>        -0.5000
     23 H3          1.0039    1.9071    0.0027 H         1 <0>         0.0702
     24 H4         -0.5459    1.8909   -0.8726 H         1 <0>         0.0604
     25 H5         -0.5289    1.8813    0.9072 H         1 <0>         0.0628
     26 H6         -0.0125   -0.1906   -2.1242 H         1 <0>         0.0703
     27 H7          1.5981    0.0368   -1.4142 H         1 <0>         0.0712
     28 H8         -0.1016   -2.4874   -1.2052 H         1 <0>         0.0675
     29 H9          1.3277   -2.2662   -2.2399 H         1 <0>         0.0680
     30 H10         3.4692   -3.6015   -1.7426 H         1 <0>         0.1256
     31 H11         3.9408   -6.0054   -1.9326 H         1 <0>         0.1279
     32 H12         1.1084   -6.7852    1.1651 H         1 <0>         0.1264
     33 H13        -0.4973   -4.9672    1.6417 H         1 <0>         0.0762
     34 H14         0.8182   -4.3391    2.6574 H         1 <0>         0.0787
     35 H15        -0.7648   -2.8537    0.5292 H         1 <0>         0.0667
     36 H16        -0.6812   -2.5272    2.2774 H         1 <0>         0.0802
     37 H17         1.8137   -2.1809    1.9885 H         1 <0>         0.0737
     38 H18        -0.1781   -1.0286    3.1690 H         1 <0>         0.0801
     39 H19        -0.2441    0.7099    2.7922 H         1 <0>         0.0741
     40 H20        -2.1282   -1.4345    1.9777 H         1 <0>         0.0971
     41 H21        -2.3450    0.3318    1.9240 H         1 <0>         0.0981
     42 H22         3.5132   -8.1944    0.0750 H         1 <0>         0.3901
@<TRIPOS>BOND
     1    1    2 1
     2    1   23 1
     3    1   24 1
     4    1   25 1
     5    2   16 1
     6    2   20 1
     7    2    3 1
     8    3    4 1
     9    3   26 1
    10    3   27 1
    11    4    5 1
    12    4   28 1
    13    4   29 1
    14    5    6 1
    15    5   15 1
    16    5    7 1
    17    7   12 ar
    18    7    8 ar
    19    8    9 ar
    20    8   30 1
    21    9   10 ar
    22    9   31 1
    23   10   11 ar
    24   10   22 1
    25   11   12 ar
    26   11   32 1
    27   12   13 1
    28   13   14 1
    29   13   33 1
    30   13   34 1
    31   14   15 1
    32   14   35 1
    33   14   36 1
    34   15   16 1
    35   15   37 1
    36   16   17 1
    37   16   18 1
    38   18   19 1
    39   18   38 1
    40   18   39 1
    41   19   20 1
    42   19   40 1
    43   19   41 1
    44   20   21 2
    45   22   42 1
@<TRIPOS>MOLECULE
CHEMBL278233__3
   42    45     0     0     0
SMALL
USER_CHARGES

@<TRIPOS>ATOM
      1 C1         -0.0187    1.5258    0.0104 C.3       1 <0>        -0.1379
      2 C2          0.0021   -0.0041    0.0020 C.3       1 <0>        -0.1147
      3 C3          0.6301   -0.4733   -1.2900 C.3       1 <0>        -0.1029
      4 C4          0.8485   -1.9879   -1.2954 C.3       1 <0>        -0.1145
      5 C5          1.7447   -2.3389   -0.1057 C.3       1 <0>        -0.0412
      6 H1          2.6616   -1.7523   -0.1619 H         1 <0>         0.0857
      7 C6          2.0918   -3.8011   -0.1106 C.ar      1 <0>        -0.0787
      8 C7          2.3745   -4.4032   -1.3295 C.ar      1 <0>        -0.1016
      9 C8          2.7097   -5.7389   -1.3922 C.ar      1 <0>        -0.1470
     10 C9          2.7661   -6.4885   -0.2259 C.ar      1 <0>         0.1032
     11 C10         2.4795   -5.8894    0.9885 C.ar      1 <0>        -0.1479
     12 C11         2.1371   -4.5453    1.0494 C.ar      1 <0>        -0.0585
     13 C12         1.8141   -3.9667    2.4018 C.3       1 <0>        -0.0828
     14 C13         1.8468   -2.4394    2.3692 C.3       1 <0>        -0.1131
     15 C14         1.0024   -1.9879    1.1789 C.3       1 <0>        -0.0814
     16 C15         0.7511   -0.4930    1.2573 C.3       1 <0>        -0.0708
     17 H2          1.6700    0.0644    1.4392 H         1 <0>         0.0979
     18 C16        -0.3282   -0.2769    2.3594 C.3       1 <0>        -0.1195
     19 C17        -1.6445   -0.6746    1.6566 C.3       1 <0>        -0.1867
     20 C18        -1.4125   -0.5061    0.1661 C.2       1 <0>         0.3789
     21 O1         -2.2052   -0.7299   -0.7170 O.2       1 <0>        -0.4380
     22 O2          3.1007   -7.8047   -0.2757 O.3       1 <0>        -0.5001
     23 H3          1.0039    1.9031    0.0027 H         1 <0>         0.0704
     24 H4         -0.5459    1.8868   -0.8726 H         1 <0>         0.0608
     25 H5         -0.5289    1.8773    0.9072 H         1 <0>         0.0629
     26 H6         -0.0228   -0.2052   -2.1206 H         1 <0>         0.0714
     27 H7          1.5909    0.0249   -1.4197 H         1 <0>         0.0721
     28 H8         -0.1095   -2.4988   -1.1987 H         1 <0>         0.0647
     29 H9          1.3346   -2.2870   -2.2240 H         1 <0>         0.0729
     30 H10         2.3316   -3.8194   -2.2370 H         1 <0>         0.1277
     31 H11         2.9270   -6.1997   -2.3445 H         1 <0>         0.1279
     32 H12         2.5229   -6.4725    1.8965 H         1 <0>         0.1263
     33 H13         0.8201   -4.2967    2.7038 H         1 <0>         0.0771
     34 H14         2.5444   -4.3246    3.1275 H         1 <0>         0.0762
     35 H15         1.4261   -2.0431    3.2933 H         1 <0>         0.0746
     36 H16         2.8752   -2.0963    2.2562 H         1 <0>         0.0699
     37 H17         0.0397   -2.4989    1.1895 H         1 <0>         0.0739
     38 H18        -0.1386   -0.9254    3.2148 H         1 <0>         0.0809
     39 H19        -0.3581    0.7681    2.6678 H         1 <0>         0.0764
     40 H20        -1.8881   -1.7131    1.8809 H         1 <0>         0.0978
     41 H21        -2.4540   -0.0222    1.9841 H         1 <0>         0.0976
     42 H22         4.0496   -7.9727   -0.1945 H         1 <0>         0.3904
@<TRIPOS>BOND
     1    1    2 1
     2    1   23 1
     3    1   24 1
     4    1   25 1
     5    2   16 1
     6    2   20 1
     7    2    3 1
     8    3    4 1
     9    3   26 1
    10    3   27 1
    11    4    5 1
    12    4   28 1
    13    4   29 1
    14    5    6 1
    15    5   15 1
    16    5    7 1
    17    7   12 ar
    18    7    8 ar
    19    8    9 ar
    20    8   30 1
    21    9   10 ar
    22    9   31 1
    23   10   11 ar
    24   10   22 1
    25   11   12 ar
    26   11   32 1
    27   12   13 1
    28   13   14 1
    29   13   33 1
    30   13   34 1
    31   14   15 1
    32   14   35 1
    33   14   36 1
    34   15   16 1
    35   15   37 1
    36   16   17 1
    37   16   18 1
    38   18   19 1
    39   18   38 1
    40   18   39 1
    41   19   20 1
    42   19   40 1
    43   19   41 1
    44   20   21 2
    45   22   42 1
@<TRIPOS>MOLECULE
CHEMBL379008
   43    46     0     0     0
SMALL
USER_CHARGES

@<TRIPOS>ATOM
      1 C1          0.4566    1.6758    0.2638 C.3       1 <0>        -0.1539
      2 C2          0.4213    0.1491    0.1702 C.3       1 <0>        -0.1262
      3 C3          1.0530   -0.4536    1.4267 C.3       1 <0>        -0.1145
      4 C4          1.0177   -1.9804    1.3330 C.3       1 <0>        -0.0733
      5 H1          1.4904   -2.3142    0.4094 H         1 <0>         0.0803
      6 C5         -0.4408   -2.4909    1.4067 C.3       1 <0>        -0.1092
      7 C6         -0.5199   -3.3706    2.6812 C.3       1 <0>        -0.1406
      8 H2         -1.5041   -3.3480    3.1491 H         1 <0>         0.1125
      9 C7          0.5959   -2.7741    3.5928 C.3       1 <0>        -0.1009
     10 C8          1.7138   -2.6039    2.5425 C.3       1 <0>        -0.0451
     11 C9          2.9473   -1.8812    3.0301 C.3       1 <0>        -0.0777
     12 C10         4.1050   -2.7269    2.5660 C.ar      1 <0>        -0.0506
     13 C11         5.4538   -2.4477    2.6044 C.ar      1 <0>        -0.1366
     14 C12         6.3218   -3.4077    2.0788 C.ar      1 <0>         0.1287
     15 C13         5.8517   -4.5959    1.5374 C.ar      1 <0>        -0.1578
     16 C14         4.5042   -4.8962    1.5002 C.ar      1 <0>        -0.0591
     17 C15         3.6176   -3.9436    2.0356 C.ar      1 <0>        -0.0942
     18 C16         2.1773   -4.0115    2.1838 C.2       1 <0>         0.0078
     19 C17         1.2998   -5.0381    2.0679 C.2       1 <0>        -0.1876
     20 C18        -0.0924   -4.7716    2.2885 C.2       1 <0>         0.3968
     21 O1         -0.9238   -5.6499    2.1755 O.2       1 <0>        -0.4567
     22 C19         1.7689   -6.4245    1.7088 C.3       1 <0>        -0.1082
     23 O2          7.6582   -3.1724    2.0978 O.3       1 <0>        -0.4994
     24 H3          1.4904    2.0109    0.3473 H         1 <0>         0.0536
     25 H4          0.0066    2.1052   -0.6313 H         1 <0>         0.0542
     26 H5         -0.1021    1.9990    1.1422 H         1 <0>         0.0541
     27 H6         -0.6125   -0.1860    0.0868 H         1 <0>         0.0637
     28 H7          0.9800   -0.1741   -0.7081 H         1 <0>         0.0613
     29 H8          2.0868   -0.1185    1.5101 H         1 <0>         0.0705
     30 H9          0.4943   -0.1305    2.3050 H         1 <0>         0.0687
     31 H10        -1.1296   -1.6500    1.4874 H         1 <0>         0.0853
     32 H11        -0.6755   -3.0862    0.5243 H         1 <0>         0.0697
     33 H12         0.2955   -1.8146    4.0138 H         1 <0>         0.0887
     34 H13         0.8883   -3.4750    4.3747 H         1 <0>         0.0786
     35 H14         3.0034   -0.8868    2.5873 H         1 <0>         0.1007
     36 H15         2.9407   -1.8124    4.1179 H         1 <0>         0.0945
     37 H16         5.8248   -1.5243    3.0241 H         1 <0>         0.1405
     38 H17         6.5591   -5.3055    1.1343 H         1 <0>         0.1317
     39 H18         4.1459   -5.8234    1.0780 H         1 <0>         0.1393
     40 H19         2.5390   -6.7411    2.4123 H         1 <0>         0.0699
     41 H20         0.9277   -7.1162    1.7554 H         1 <0>         0.0755
     42 H21         2.1793   -6.4190    0.6991 H         1 <0>         0.0698
     43 H22         8.1018   -3.4879    2.8970 H         1 <0>         0.3949
@<TRIPOS>BOND
     1    1    2 1
     2    1   24 1
     3    1   25 1
     4    1   26 1
     5    2    3 1
     6    2   27 1
     7    2   28 1
     8    3    4 1
     9    3   29 1
    10    3   30 1
    11    4    5 1
    12    4   10 1
    13    4    6 1
    14    6    7 1
    15    6   31 1
    16    6   32 1
    17    7    8 1
    18    7   20 1
    19    7    9 1
    20    9   10 1
    21    9   33 1
    22    9   34 1
    23   10   18 1
    24   10   11 1
    25   11   12 1
    26   11   35 1
    27   11   36 1
    28   12   17 ar
    29   12   13 ar
    30   13   14 ar
    31   13   37 1
    32   14   15 ar
    33   14   23 1
    34   15   16 ar
    35   15   38 1
    36   16   17 ar
    37   16   39 1
    38   17   18 1
    39   18   19 2
    40   19   20 1
    41   19   22 1
    42   20   21 2
    43   22   40 1
    44   22   41 1
    45   22   42 1
    46   23   43 1
@<TRIPOS>MOLECULE
CHEMBL426322
   62    67     0     0     0
SMALL
USER_CHARGES

@<TRIPOS>ATOM
      1 C1          1.1689   -0.6116    0.4277 C.ar      1 <0>        -0.0397
      2 C2          2.3578    0.0919    0.4203 C.ar      1 <0>        -0.1361
      3 C3          2.3803    1.4090   -0.0147 C.ar      1 <0>         0.1256
      4 C4          1.2082    2.0163   -0.4414 C.ar      1 <0>        -0.2019
      5 C5          0.0219    1.3085   -0.4321 C.ar      1 <0>        -0.0672
      6 C6          0.0021   -0.0041    0.0020 C.ar      1 <0>        -0.1008
      7 C7         -1.2934   -0.7740    0.0107 C.3       1 <0>         0.1917
      8 C8         -1.5934   -1.2226    1.4123 C.2       1 <0>        -0.1068
      9 C9         -2.3133   -2.3427    1.6274 C.2       1 <0>        -0.0909
     10 C10        -2.6681   -2.7597    3.0265 C.3       1 <0>         0.1109
     11 O1         -1.6638   -2.3384    3.9490 O.3       1 <0>        -0.3038
     12 C11        -1.1980   -1.0675    3.8462 C.ar      1 <0>         0.1524
     13 C12        -1.1254   -0.4616    2.5805 C.ar      1 <0>        -0.1214
     14 C13        -0.6232    0.8313    2.4527 C.ar      1 <0>        -0.0685
     15 C14        -0.2118    1.5184    3.5766 C.ar      1 <0>        -0.1727
     16 C15        -0.2992    0.9255    4.8299 C.ar      1 <0>         0.1495
     17 C16        -0.7911   -0.3662    4.9644 C.ar      1 <0>        -0.1695
     18 O2          0.0996    1.6138    5.9313 O.3       1 <0>        -0.4954
     19 C17        -2.7147   -3.1486    0.4641 C.ar      1 <0>        -0.1312
     20 C18        -3.6551   -4.1704    0.5766 C.ar      1 <0>        -0.0533
     21 C19        -4.0163   -4.8920   -0.5425 C.ar      1 <0>        -0.1659
     22 C20        -3.4469   -4.6014   -1.7764 C.ar      1 <0>         0.1530
     23 C21        -2.5048   -3.5887   -1.8952 C.ar      1 <0>        -0.1674
     24 C22        -2.1284   -2.8644   -0.7805 C.ar      1 <0>         0.1499
     25 O3         -1.1791   -1.8975   -0.8630 O.3       1 <0>        -0.2994
     26 O4         -3.8150   -5.3128   -2.8738 O.3       1 <0>        -0.4929
     27 O5          3.5485    2.1033   -0.0225 O.3       1 <0>        -0.3260
     28 C23         3.4968    3.4550   -0.4833 C.3       1 <0>         0.0260
     29 C24         4.8966    4.0694   -0.4200 C.3       1 <0>         0.0035
     30 N1          5.7809    3.3710   -1.3626 N.4       1 <0>        -0.3961
     31 C25         5.3764    3.6683   -2.7605 C.3       1 <0>        -0.0105
     32 C26         6.6610    3.3674   -3.5729 C.3       1 <0>        -0.1448
     33 C27         7.7862    3.8678   -2.6382 C.3       1 <0>        -0.1450
     34 C28         7.1662    3.8715   -1.2286 C.3       1 <0>        -0.0086
     35 H1          1.1516   -1.6384    0.7620 H         1 <0>         0.1351
     36 H2          3.2688   -0.3830    0.7532 H         1 <0>         0.1366
     37 H3          1.2231    3.0417   -0.7801 H         1 <0>         0.1332
     38 H4         -0.8908    1.7809   -0.7641 H         1 <0>         0.1376
     39 H5         -2.0981   -0.1272   -0.3390 H         1 <0>         0.0912
     40 H6         -3.6217   -2.3105    3.3040 H         1 <0>         0.0821
     41 H7         -2.7586   -3.8453    3.0655 H         1 <0>         0.1237
     42 H8         -0.5557    1.2935    1.4790 H         1 <0>         0.1434
     43 H9          0.1792    2.5206    3.4815 H         1 <0>         0.1302
     44 H10        -0.8562   -0.8212    5.9417 H         1 <0>         0.1434
     45 H11        -0.6022    2.1345    6.3452 H         1 <0>         0.3981
     46 H12        -4.0987   -4.3967    1.5349 H         1 <0>         0.1379
     47 H13        -4.7439   -5.6858   -0.4592 H         1 <0>         0.1399
     48 H14        -2.0667   -3.3676   -2.8573 H         1 <0>         0.1426
     49 H15        -4.5667   -4.9371   -3.3522 H         1 <0>         0.3990
     50 H16         3.1376    3.4747   -1.5122 H         1 <0>         0.0863
     51 H17         2.8193    4.0288    0.1491 H         1 <0>         0.1094
     52 H18         4.8426    5.1249   -0.6865 H         1 <0>         0.1490
     53 H19         5.2918    3.9696    0.5909 H         1 <0>         0.1418
     54 H20         4.5619    3.0146   -3.0726 H         1 <0>         0.1333
     55 H21         5.0920    4.7154   -2.8643 H         1 <0>         0.1349
     56 H22         6.7594    2.2976   -3.7566 H         1 <0>         0.0984
     57 H23         6.6632    3.9228   -4.5108 H         1 <0>         0.1174
     58 H24         8.6383    3.1890   -2.6749 H         1 <0>         0.1057
     59 H25         8.0918    4.8755   -2.9198 H         1 <0>         0.1045
     60 H26         7.1576    4.8857   -0.8294 H         1 <0>         0.1315
     61 H27         7.7360    3.2154   -0.5706 H         1 <0>         0.1331
     62 H28         5.7525    2.3764   -1.1952 H         1 <0>         0.4338
@<TRIPOS>BOND
     1    1    6 ar
     2    1    2 ar
     3    1   35 1
     4    2    3 ar
     5    2   36 1
     6    3    4 ar
     7    3   27 1
     8    4    5 ar
     9    4   37 1
    10    5    6 ar
    11    5   38 1
    12    6    7 1
    13    7   25 1
    14    7    8 1
    15    7   39 1
    16    8   13 1
    17    8    9 2
    18    9   10 1
    19    9   19 1
    20   10   11 1
    21   10   40 1
    22   10   41 1
    23   11   12 1
    24   12   17 ar
    25   12   13 ar
    26   13   14 ar
    27   14   15 ar
    28   14   42 1
    29   15   16 ar
    30   15   43 1
    31   16   17 ar
    32   16   18 1
    33   17   44 1
    34   18   45 1
    35   19   24 ar
    36   19   20 ar
    37   20   21 ar
    38   20   46 1
    39   21   22 ar
    40   21   47 1
    41   22   23 ar
    42   22   26 1
    43   23   24 ar
    44   23   48 1
    45   24   25 1
    46   26   49 1
    47   27   28 1
    48   28   29 1
    49   28   50 1
    50   28   51 1
    51   29   30 1
    52   29   52 1
    53   29   53 1
    54   30   34 1
    55   30   31 1
    56   30   62 1
    57   31   32 1
    58   31   54 1
    59   31   55 1
    60   32   33 1
    61   32   56 1
    62   32   57 1
    63   33   34 1
    64   33   58 1
    65   33   59 1
    66   34   60 1
    67   34   61 1
@<TRIPOS>MOLECULE
CHEMBL426322__1
   62    67     0     0     0
SMALL
USER_CHARGES

@<TRIPOS>ATOM
      1 C1         -0.0167    1.3784    0.0096 C.ar      1 <0>        -0.0616
      2 C2          1.1695    2.0865    0.0021 C.ar      1 <0>        -0.1366
      3 C3          2.3802    1.4093   -0.0131 C.ar      1 <0>         0.1196
      4 C4          2.3963    0.0221   -0.0206 C.ar      1 <0>        -0.1972
      5 C5          1.2074   -0.6814   -0.0130 C.ar      1 <0>        -0.0660
      6 C6          0.0021   -0.0041    0.0020 C.ar      1 <0>        -0.1321
      7 C7         -1.2934   -0.7740    0.0107 C.3       1 <0>         0.1887
      8 C8         -1.6211   -1.2076   -1.3895 C.2       1 <0>        -0.0924
      9 C9         -1.1608   -2.3844   -1.8611 C.2       1 <0>        -0.0988
     10 C10        -1.4344   -2.7918   -3.2812 C.3       1 <0>         0.1133
     11 O1         -2.6753   -2.2496   -3.7320 O.3       1 <0>        -0.3025
     12 C11        -2.9334   -0.9437   -3.4661 C.ar      1 <0>         0.1532
     13 C12        -2.4367   -0.3713   -2.2828 C.ar      1 <0>        -0.1267
     14 C13        -2.7159    0.9592   -1.9798 C.ar      1 <0>        -0.0605
     15 C14        -3.4695    1.7153   -2.8542 C.ar      1 <0>        -0.1687
     16 C15        -3.9465    1.1541   -4.0321 C.ar      1 <0>         0.1529
     17 C16        -3.6793   -0.1741   -4.3373 C.ar      1 <0>        -0.1670
     18 O2         -4.6797    1.9095   -4.8911 O.3       1 <0>        -0.4922
     19 C17        -0.4124   -3.2588   -0.9453 C.ar      1 <0>        -0.1280
     20 C18         0.2995   -4.3619   -1.4118 C.ar      1 <0>        -0.0554
     21 C19         1.0021   -5.1474   -0.5213 C.ar      1 <0>        -0.1676
     22 C20         1.0017   -4.8403    0.8340 C.ar      1 <0>         0.1499
     23 C21         0.2892   -3.7469    1.3073 C.ar      1 <0>        -0.1730
     24 C22        -0.4246   -2.9570    0.4267 C.ar      1 <0>         0.1487
     25 O3         -1.1619   -1.9068    0.8699 O.3       1 <0>        -0.2909
     26 O4          1.7030   -5.6157    1.7017 O.3       1 <0>        -0.4901
     27 O5          3.5484    2.1036   -0.0209 O.3       1 <0>        -0.3267
     28 C23         4.7565    1.3405   -0.0365 C.3       1 <0>         0.0265
     29 C24         5.9580    2.2878   -0.0434 C.3       1 <0>         0.0040
     30 N1          5.9923    3.0443    1.2153 N.4       1 <0>        -0.3959
     31 C25         6.3189    2.1401    2.3476 C.3       1 <0>        -0.0106
     32 C26         6.8622    3.1078    3.4287 C.3       1 <0>        -0.1447
     33 C27         7.6591    4.1407    2.5992 C.3       1 <0>        -0.1450
     34 C28         7.0764    4.0497    1.1767 C.3       1 <0>        -0.0087
     35 H1         -0.9594    1.9052    0.0259 H         1 <0>         0.1387
     36 H2          1.1543    3.1664    0.0076 H         1 <0>         0.1380
     37 H3          3.3375   -0.5074   -0.0328 H         1 <0>         0.1288
     38 H4          1.2194   -1.7613   -0.0189 H         1 <0>         0.1341
     39 H5         -2.0909   -0.1311    0.3832 H         1 <0>         0.1361
     40 H6         -0.6301   -2.4275   -3.9204 H         1 <0>         0.0787
     41 H7         -1.4749   -3.8794   -3.3411 H         1 <0>         0.1223
     42 H8         -2.3447    1.3969   -1.0648 H         1 <0>         0.1305
     43 H9         -3.6890    2.7470   -2.6223 H         1 <0>         0.1379
     44 H10        -4.0534   -0.6042   -5.2546 H         1 <0>         0.1449
     45 H11        -4.1523    2.3730   -5.5559 H         1 <0>         0.3981
     46 H12         0.3011   -4.6010   -2.4650 H         1 <0>         0.1382
     47 H13         1.5541   -6.0041   -0.8788 H         1 <0>         0.1396
     48 H14         0.2931   -3.5140    2.3619 H         1 <0>         0.1435
     49 H15         2.6161   -5.3276    1.8370 H         1 <0>         0.3950
     50 H16         4.7979    0.7076    0.8500 H         1 <0>         0.0857
     51 H17         4.7806    0.7165   -0.9299 H         1 <0>         0.1082
     52 H18         6.8762    1.7093   -0.1448 H         1 <0>         0.1490
     53 H19         5.8702    2.9798   -0.8810 H         1 <0>         0.1417
     54 H20         5.4236    1.6298    2.7029 H         1 <0>         0.1331
     55 H21         7.0836    1.4199    2.0566 H         1 <0>         0.1349
     56 H22         6.0428    3.5904    3.9613 H         1 <0>         0.0986
     57 H23         7.5180    2.5819    4.1227 H         1 <0>         0.1176
     58 H24         7.5152    5.1427    3.0036 H         1 <0>         0.1060
     59 H25         8.7183    3.8835    2.5913 H         1 <0>         0.1047
     60 H26         7.8509    3.7340    0.4777 H         1 <0>         0.1315
     61 H27         6.6745    5.0177    0.8774 H         1 <0>         0.1332
     62 H28         5.1043    3.4961    1.3746 H         1 <0>         0.4335
@<TRIPOS>BOND
     1    1    6 ar
     2    1    2 ar
     3    1   35 1
     4    2    3 ar
     5    2   36 1
     6    3    4 ar
     7    3   27 1
     8    4    5 ar
     9    4   37 1
    10    5    6 ar
    11    5   38 1
    12    6    7 1
    13    7   25 1
    14    7    8 1
    15    7   39 1
    16    8   13 1
    17    8    9 2
    18    9   10 1
    19    9   19 1
    20   10   11 1
    21   10   40 1
    22   10   41 1
    23   11   12 1
    24   12   17 ar
    25   12   13 ar
    26   13   14 ar
    27   14   15 ar
    28   14   42 1
    29   15   16 ar
    30   15   43 1
    31   16   17 ar
    32   16   18 1
    33   17   44 1
    34   18   45 1
    35   19   24 ar
    36   19   20 ar
    37   20   21 ar
    38   20   46 1
    39   21   22 ar
    40   21   47 1
    41   22   23 ar
    42   22   26 1
    43   23   24 ar
    44   23   48 1
    45   24   25 1
    46   26   49 1
    47   27   28 1
    48   28   29 1
    49   28   50 1
    50   28   51 1
    51   29   30 1
    52   29   52 1
    53   29   53 1
    54   30   34 1
    55   30   31 1
    56   30   62 1
    57   31   32 1
    58   31   54 1
    59   31   55 1
    60   32   33 1
    61   32   56 1
    62   32   57 1
    63   33   34 1
    64   33   58 1
    65   33   59 1
    66   34   60 1
    67   34   61 1
@<TRIPOS>MOLECULE
CHEMBL185231
   70    75     0     0     0
SMALL
USER_CHARGES

@<TRIPOS>ATOM
      1 C1          1.1631   -0.6117   -0.4390 C.ar      1 <0>        -0.0873
      2 C2          2.3518    0.0921   -0.4484 C.ar      1 <0>        -0.1389
      3 C3          2.3800    1.4096   -0.0147 C.ar      1 <0>         0.1158
      4 C4          1.2137    2.0170    0.4273 C.ar      1 <0>        -0.1461
      5 C5          0.0275    1.3089    0.4346 C.ar      1 <0>        -0.0837
      6 C6          0.0021   -0.0041    0.0020 C.ar      1 <0>        -0.0899
      7 C7         -1.2934   -0.7740    0.0107 C.3       1 <0>        -0.0640
      8 H1         -2.1334   -0.0869    0.1120 H         1 <0>         0.1382
      9 C8         -1.2969   -1.7821    1.1721 C.3       1 <0>         0.1497
     10 H2         -2.1779   -2.4197    1.0986 H         1 <0>         0.0962
     11 O1         -0.1255   -2.5802    1.0967 O.3       1 <0>        -0.3049
     12 C9          0.1551   -3.3416    0.0132 C.ar      1 <0>         0.1211
     13 C10         0.9986   -4.4351    0.1946 C.ar      1 <0>        -0.1140
     14 C11         1.3394   -5.2447   -0.8692 C.ar      1 <0>        -0.1061
     15 C12         0.8443   -4.9772   -2.1372 C.ar      1 <0>         0.0985
     16 C13        -0.0005   -3.8960   -2.3286 C.ar      1 <0>        -0.0901
     17 C14        -0.3494   -3.0850   -1.2568 C.ar      1 <0>        -0.1477
     18 S1         -1.4568   -1.7323   -1.5285 S.3       1 <0>        -0.0842
     19 O2          1.1866   -5.7716   -3.1864 O.3       1 <0>        -0.4915
     20 C15        -1.3198   -1.0400    2.4835 C.ar      1 <0>        -0.1046
     21 C16        -0.1522   -0.5024    2.9927 C.ar      1 <0>        -0.0346
     22 C17        -0.1704    0.1779    4.1949 C.ar      1 <0>        -0.1417
     23 C18        -1.3617    0.3218    4.8912 C.ar      1 <0>         0.1246
     24 C19        -2.5320   -0.2182    4.3779 C.ar      1 <0>        -0.2035
     25 C20        -2.5094   -0.8931    3.1727 C.ar      1 <0>        -0.0589
     26 O3         -1.3822    0.9902    6.0743 O.3       1 <0>        -0.3261
     27 C21        -2.6441    1.0995    6.7359 C.3       1 <0>         0.0263
     28 C22        -2.4698    1.8785    8.0411 C.3       1 <0>        -0.0006
     29 N1         -2.0692    3.2589    7.7377 N.4       1 <0>        -0.3907
     30 C23        -3.1675    3.9522    7.0368 C.3       1 <0>        -0.0199
     31 C24        -3.5894    5.1504    7.9307 C.3       1 <0>        -0.0929
     32 H3         -3.8887    6.0194    7.3447 H         1 <0>         0.1270
     33 C25        -4.7213    4.6444    8.8273 C.3       1 <0>        -0.1232
     34 C26        -4.9353    5.5752   10.0174 C.3       1 <0>        -0.1256
     35 C27        -3.6550    5.5851   10.8609 C.3       1 <0>        -0.1258
     36 C28        -2.5329    6.1847   10.0141 C.3       1 <0>        -0.1128
     37 C29        -2.3029    5.4081    8.7370 C.3       1 <0>        -0.0981
     38 H4         -1.5838    5.9318    8.1071 H         1 <0>         0.1005
     39 C30        -1.7821    3.9837    8.9986 C.3       1 <0>        -0.0082
     40 O4          3.5482    2.1039   -0.0225 O.3       1 <0>        -0.4998
     41 H5          1.1398   -1.6359   -0.7807 H         1 <0>         0.1322
     42 H6          3.2585   -0.3831   -0.7926 H         1 <0>         0.1315
     43 H7          1.2331    3.0424    0.7657 H         1 <0>         0.1294
     44 H8         -0.8807    1.7813    0.7787 H         1 <0>         0.1235
     45 H9          1.3899   -4.6512    1.1778 H         1 <0>         0.1413
     46 H10         1.9942   -6.0894   -0.7144 H         1 <0>         0.1429
     47 H11        -0.3883   -3.6831   -3.3139 H         1 <0>         0.1405
     48 H12         0.5878   -6.5179   -3.3264 H         1 <0>         0.3946
     49 H13         0.7750   -0.6147    2.4504 H         1 <0>         0.1388
     50 H14         0.7420    0.5970    4.5927 H         1 <0>         0.1351
     51 H15        -3.4607   -0.1075    4.9180 H         1 <0>         0.1311
     52 H16        -3.4210   -1.3098    2.7705 H         1 <0>         0.1346
     53 H17        -3.3483    1.6246    6.0906 H         1 <0>         0.0863
     54 H18        -3.0265    0.1028    6.9560 H         1 <0>         0.1092
     55 H19        -3.4123    1.8857    8.5886 H         1 <0>         0.1476
     56 H20        -1.7003    1.4021    8.6486 H         1 <0>         0.1425
     57 H21        -2.8216    4.3138    6.0685 H         1 <0>         0.1322
     58 H22        -4.0099    3.2737    6.9019 H         1 <0>         0.1312
     59 H23        -5.6414    4.5900    8.2455 H         1 <0>         0.0800
     60 H24        -4.4705    3.6485    9.1925 H         1 <0>         0.0584
     61 H25        -5.1480    6.5832    9.6613 H         1 <0>         0.0742
     62 H26        -5.7690    5.2147   10.6199 H         1 <0>         0.0753
     63 H27        -3.8069    6.1919   11.7535 H         1 <0>         0.0796
     64 H28        -3.3953    4.5660   11.1477 H         1 <0>         0.0625
     65 H29        -2.7937    7.2105    9.7537 H         1 <0>         0.0840
     66 H30        -1.6120    6.1906   10.5972 H         1 <0>         0.0784
     67 H31        -2.3177    3.5281    9.8315 H         1 <0>         0.1341
     68 H32        -0.7101    3.9989    9.1949 H         1 <0>         0.1378
     69 H33         3.7178    2.5792   -0.8474 H         1 <0>         0.3955
     70 H34        -1.2461    3.2539    7.1540 H         1 <0>         0.4330
@<TRIPOS>BOND
     1    1    6 ar
     2    1    2 ar
     3    1   41 1
     4    2    3 ar
     5    2   42 1
     6    3    4 ar
     7    3   40 1
     8    4    5 ar
     9    4   43 1
    10    5    6 ar
    11    5   44 1
    12    6    7 1
    13    7    8 1
    14    7   18 1
    15    7    9 1
    16    9   10 1
    17    9   11 1
    18    9   20 1
    19   11   12 1
    20   12   17 ar
    21   12   13 ar
    22   13   14 ar
    23   13   45 1
    24   14   15 ar
    25   14   46 1
    26   15   16 ar
    27   15   19 1
    28   16   17 ar
    29   16   47 1
    30   17   18 1
    31   19   48 1
    32   20   25 ar
    33   20   21 ar
    34   21   22 ar
    35   21   49 1
    36   22   23 ar
    37   22   50 1
    38   23   24 ar
    39   23   26 1
    40   24   25 ar
    41   24   51 1
    42   25   52 1
    43   26   27 1
    44   27   28 1
    45   27   53 1
    46   27   54 1
    47   28   29 1
    48   28   55 1
    49   28   56 1
    50   29   39 1
    51   29   30 1
    52   29   70 1
    53   30   31 1
    54   30   57 1
    55   30   58 1
    56   31   32 1
    57   31   37 1
    58   31   33 1
    59   33   34 1
    60   33   59 1
    61   33   60 1
    62   34   35 1
    63   34   61 1
    64   34   62 1
    65   35   36 1
    66   35   63 1
    67   35   64 1
    68   36   37 1
    69   36   65 1
    70   36   66 1
    71   37   38 1
    72   37   39 1
    73   39   67 1
    74   39   68 1
    75   40   69 1
@<TRIPOS>MOLECULE
CHEMBL346455
   63    66     0     0     0
SMALL
USER_CHARGES

@<TRIPOS>ATOM
      1 C1         -0.0167    1.3784    0.0096 C.ar      1 <0>        -0.0947
      2 C2          1.1695    2.0865    0.0021 C.ar      1 <0>        -0.1429
      3 C3          2.3802    1.4093   -0.0131 C.ar      1 <0>         0.1113
      4 C4          2.3963    0.0221   -0.0206 C.ar      1 <0>        -0.1426
      5 C5          1.2074   -0.6814   -0.0130 C.ar      1 <0>        -0.0944
      6 C6          0.0021   -0.0041    0.0020 C.ar      1 <0>        -0.0984
      7 C7         -1.2934   -0.7740    0.0107 C.3       1 <0>        -0.0902
      8 C8         -1.7461   -1.0268   -1.4288 C.3       1 <0>         0.1376
      9 N1         -3.0054   -1.7753   -1.4203 N.pl3     1 <0>        -0.6783
     10 C9         -3.6104   -2.1214   -2.6115 C.ar      1 <0>         0.6443
     11 N2         -4.7562   -2.7960   -2.6037 N.ar      1 <0>        -0.6589
     12 C10        -5.3393   -3.1296   -3.7509 C.ar      1 <0>         0.6398
     13 N3         -4.7770   -2.7888   -4.9062 N.ar      1 <0>        -0.6200
     14 C11        -3.6310   -2.1141   -4.9143 C.ar      1 <0>         0.4097
     15 N4         -3.0505   -1.7757   -3.7662 N.ar      1 <0>        -0.6276
     16 S1         -2.8850   -1.6627   -6.4454 S.3       1 <0>         0.0334
     17 C12        -1.3780   -0.7795   -5.9559 C.3       1 <0>        -0.1081
     18 C13        -0.6237   -0.3255   -7.2072 C.3       1 <0>        -0.1019
     19 C14         0.6473    0.4195   -6.7943 C.3       1 <0>        -0.0722
     20 C15         1.3903    0.8667   -8.0268 C.ar      1 <0>        -0.0823
     21 C16         2.3343    0.0376   -8.6033 C.ar      1 <0>        -0.1028
     22 C17         3.0160    0.4472   -9.7337 C.ar      1 <0>        -0.1075
     23 C18         2.7535    1.6872  -10.2882 C.ar      1 <0>        -0.0364
     24 C19         1.8086    2.5166   -9.7107 C.ar      1 <0>        -0.1077
     25 C20         1.1235    2.1035   -8.5836 C.ar      1 <0>        -0.1031
     26 Cl1         3.6098    2.2026  -11.7076 Cl        1 <0>        -0.0662
     27 N5         -6.5284   -3.8302   -3.7424 N.pl3     1 <0>        -0.5960
     28 C21        -7.1717   -4.2130   -2.4761 C.3       1 <0>         0.1043
     29 C22        -8.6400   -3.7776   -2.5261 C.3       1 <0>        -0.0213
     30 N6         -9.2760   -4.3410   -3.7236 N.4       1 <0>        -0.5058
     31 C23        -8.6561   -3.7794   -4.9304 C.3       1 <0>        -0.0212
     32 C24        -7.1915   -4.2100   -4.9994 C.3       1 <0>         0.1028
     33 O1          3.5484    2.1036   -0.0209 O.3       1 <0>        -0.4993
     34 H1         -0.9594    1.9052    0.0259 H         1 <0>         0.1264
     35 H2          1.1543    3.1664    0.0076 H         1 <0>         0.1311
     36 H3          3.3375   -0.5074   -0.0328 H         1 <0>         0.1313
     37 H4          1.2194   -1.7613   -0.0189 H         1 <0>         0.1268
     38 H5         -1.1460   -1.7274    0.5180 H         1 <0>         0.0823
     39 H6         -2.0553   -0.1973    0.5352 H         1 <0>         0.0819
     40 H7         -1.8934   -0.0734   -1.9361 H         1 <0>         0.0754
     41 H8         -0.9842   -1.6035   -1.9533 H         1 <0>         0.0756
     42 H9         -3.4140   -2.0276   -0.5775 H         1 <0>         0.4177
     43 H10        -1.6455    0.0911   -5.3570 H         1 <0>         0.0987
     44 H11        -0.7425   -1.4428   -5.3692 H         1 <0>         0.0989
     45 H12        -0.3563   -1.1960   -7.8061 H         1 <0>         0.0788
     46 H13        -1.2593    0.3378   -7.7939 H         1 <0>         0.0785
     47 H14         0.3798    1.2900   -6.1953 H         1 <0>         0.0797
     48 H15         1.2828   -0.2438   -6.2076 H         1 <0>         0.0799
     49 H16         2.5394   -0.9303   -8.1702 H         1 <0>         0.1319
     50 H17         3.7538   -0.2005  -10.1839 H         1 <0>         0.1347
     51 H18         1.6035    3.4848  -10.1429 H         1 <0>         0.1346
     52 H19         0.3824    2.7489   -8.1355 H         1 <0>         0.1316
     53 H20        -7.1144   -5.2940   -2.3482 H         1 <0>         0.0952
     54 H21        -6.6704   -3.7159   -1.6456 H         1 <0>         0.1408
     55 H22        -9.1565   -4.1380   -1.6365 H         1 <0>         0.1481
     56 H23        -8.6954   -2.6896   -2.5629 H         1 <0>         0.1341
     57 H24        -9.1616   -5.3435   -3.7236 H         1 <0>         0.4293
     58 H25        -9.1845   -4.1412   -5.8124 H         1 <0>         0.1497
     59 H26        -8.7110   -2.6914   -4.8945 H         1 <0>         0.1345
     60 H27        -6.7033   -3.7110   -5.8365 H         1 <0>         0.1439
     61 H28        -7.1363   -5.2907   -5.1307 H         1 <0>         0.0956
     62 H29         3.8951    2.3001    0.8601 H         1 <0>         0.3949
     63 H30       -10.2599   -4.1173   -3.7172 H         1 <0>         0.4345
@<TRIPOS>BOND
     1    1    6 ar
     2    1    2 ar
     3    1   34 1
     4    2    3 ar
     5    2   35 1
     6    3    4 ar
     7    3   33 1
     8    4    5 ar
     9    4   36 1
    10    5    6 ar
    11    5   37 1
    12    6    7 1
    13    7    8 1
    14    7   38 1
    15    7   39 1
    16    8    9 1
    17    8   40 1
    18    8   41 1
    19    9   10 1
    20    9   42 1
    21   10   15 ar
    22   10   11 ar
    23   11   12 ar
    24   12   13 ar
    25   12   27 1
    26   13   14 ar
    27   14   15 ar
    28   14   16 1
    29   16   17 1
    30   17   18 1
    31   17   43 1
    32   17   44 1
    33   18   19 1
    34   18   45 1
    35   18   46 1
    36   19   20 1
    37   19   47 1
    38   19   48 1
    39   20   25 ar
    40   20   21 ar
    41   21   22 ar
    42   21   49 1
    43   22   23 ar
    44   22   50 1
    45   23   24 ar
    46   23   26 1
    47   24   25 ar
    48   24   51 1
    49   25   52 1
    50   27   32 1
    51   27   28 1
    52   28   29 1
    53   28   53 1
    54   28   54 1
    55   29   30 1
    56   29   55 1
    57   29   56 1
    58   30   31 1
    59   30   57 1
    60   30   63 1
    61   31   32 1
    62   31   58 1
    63   31   59 1
    64   32   60 1
    65   32   61 1
    66   33   62 1
@<TRIPOS>MOLECULE
CHEMBL218220
   64    68     0     0     0
SMALL
USER_CHARGES

@<TRIPOS>ATOM
      1 C1          0.4730    0.0865   -1.3016 C.ar      1 <0>        -0.0629
      2 C2          1.6827    0.6988   -1.0501 C.ar      1 <0>        -0.1477
      3 C3          2.0131    1.0816    0.2429 C.ar      1 <0>         0.1297
      4 C4          1.1271    0.8499    1.2865 C.ar      1 <0>        -0.1445
      5 C5         -0.0843    0.2384    1.0414 C.ar      1 <0>        -0.0610
      6 C6         -0.4189   -0.1477   -0.2558 C.ar      1 <0>        -0.0435
      7 C7         -1.7204   -0.8058   -0.5227 C.2       1 <0>         0.1808
      8 C8         -1.9270   -1.8993   -1.3855 C.2       1 <0>        -0.1403
      9 C9         -3.2916   -2.2052   -1.3455 C.2       1 <0>         0.2630
     10 N1         -4.0244   -3.1388   -1.9619 N.2       1 <0>        -0.3713
     11 C10        -5.3182   -3.2249   -1.7544 C.2       1 <0>         0.1194
     12 C11        -5.9534   -2.3337   -0.8784 C.2       1 <0>        -0.1277
     13 C12        -5.2206   -1.3830   -0.2479 C.2       1 <0>         0.1114
     14 N2         -3.8768   -1.3154   -0.4814 N.pl3     1 <0>        -0.2881
     15 N3         -2.8786   -0.4685    0.0129 N.2       1 <0>        -0.2581
     16 C13        -5.8806   -0.4132    0.6981 C.3       1 <0>         0.5267
     17 F1         -7.2508   -0.6871    0.7657 F         1 <0>        -0.1506
     18 F2         -5.3152   -0.5453    1.9709 F         1 <0>        -0.1513
     19 F3         -5.6884    0.8931    0.2357 F         1 <0>        -0.1510
     20 C14        -6.1230   -4.2852   -2.4609 C.3       1 <0>         0.5321
     21 F4         -5.2780   -5.0468   -3.2752 F         1 <0>        -0.1513
     22 F5         -6.7321   -5.1162   -1.5146 F         1 <0>        -0.1556
     23 F6         -7.1060   -3.6769   -3.2488 F         1 <0>        -0.1555
     24 C15        -0.8935   -2.5949   -2.1855 C.ar      1 <0>        -0.0256
     25 C16        -0.9436   -2.5549   -3.5793 C.ar      1 <0>        -0.0541
     26 C17         0.0212   -3.2037   -4.3211 C.ar      1 <0>        -0.1368
     27 C18         1.0408   -3.8964   -3.6829 C.ar      1 <0>         0.1198
     28 C19         1.0938   -3.9389   -2.2964 C.ar      1 <0>        -0.1977
     29 C20         0.1362   -3.2873   -1.5477 C.ar      1 <0>        -0.0519
     30 O1          1.9897   -4.5350   -4.4175 O.3       1 <0>        -0.3274
     31 C21         3.0103   -5.2286   -3.6967 C.3       1 <0>         0.0249
     32 C22         3.9797   -5.8800   -4.6851 C.3       1 <0>        -0.0011
     33 N4          4.6608   -4.8365   -5.4629 N.4       1 <0>        -0.3840
     34 C23         5.4680   -5.4623   -6.5170 C.3       1 <0>        -0.0072
     35 C24         6.1154   -4.3777   -7.3808 C.3       1 <0>        -0.1465
     36 C25         7.0118   -3.5005   -6.5021 C.3       1 <0>        -0.1391
     37 C26         6.1746   -2.9123   -5.3626 C.3       1 <0>        -0.1451
     38 C27         5.5251   -4.0512   -4.5737 C.3       1 <0>        -0.0134
     39 O2          3.2062    1.6839    0.4877 O.3       1 <0>        -0.4994
     40 H1          0.2148   -0.2074   -2.3082 H         1 <0>         0.1313
     41 H2          2.3740    0.8804   -1.8597 H         1 <0>         0.1345
     42 H3          1.3872    1.1485    2.2912 H         1 <0>         0.1390
     43 H4         -0.7729    0.0581    1.8536 H         1 <0>         0.1354
     44 H5         -7.0175   -2.4035   -0.7074 H         1 <0>         0.1984
     45 H6         -1.7370   -2.0168   -4.0766 H         1 <0>         0.1339
     46 H7         -0.0169   -3.1732   -5.4000 H         1 <0>         0.1364
     47 H8          1.8883   -4.4794   -1.8034 H         1 <0>         0.1302
     48 H9          0.1808   -3.3168   -0.4690 H         1 <0>         0.1304
     49 H10         3.5529   -4.5240   -3.0666 H         1 <0>         0.0871
     50 H11         2.5555   -5.9982   -3.0731 H         1 <0>         0.1099
     51 H12         4.7183   -6.4653   -4.1374 H         1 <0>         0.1488
     52 H13         3.4263   -6.5332   -5.3598 H         1 <0>         0.1428
     53 H14         6.2455   -6.0763   -6.0624 H         1 <0>         0.1290
     54 H15         4.8292   -6.0888   -7.1396 H         1 <0>         0.1310
     55 H16         6.7157   -4.8444   -8.1617 H         1 <0>         0.1128
     56 H17         5.3387   -3.7633   -7.8361 H         1 <0>         0.0879
     57 H18         7.8188   -4.1044   -6.0872 H         1 <0>         0.0820
     58 H19         7.4309   -2.6922   -7.1013 H         1 <0>         0.0945
     59 H20         6.8174   -2.3315   -4.7011 H         1 <0>         0.1123
     60 H21         5.3992   -2.2674   -5.7761 H         1 <0>         0.0879
     61 H22         4.9285   -3.6358   -3.7615 H         1 <0>         0.1278
     62 H23         6.3014   -4.6952   -4.1605 H         1 <0>         0.1301
     63 H24         3.1814    2.6482    0.4192 H         1 <0>         0.3990
     64 H25         3.9734   -4.2297   -5.8841 H         1 <0>         0.4294
@<TRIPOS>BOND
     1    1    6 ar
     2    1    2 ar
     3    1   40 1
     4    2    3 ar
     5    2   41 1
     6    3    4 ar
     7    3   39 1
     8    4    5 ar
     9    4   42 1
    10    5    6 ar
    11    5   43 1
    12    6    7 1
    13    7   15 2
    14    7    8 1
    15    8    9 2
    16    8   24 1
    17    9   14 1
    18    9   10 1
    19   10   11 2
    20   11   12 1
    21   11   20 1
    22   12   13 2
    23   12   44 1
    24   13   14 1
    25   13   16 1
    26   14   15 1
    27   16   17 1
    28   16   18 1
    29   16   19 1
    30   20   21 1
    31   20   22 1
    32   20   23 1
    33   24   29 ar
    34   24   25 ar
    35   25   26 ar
    36   25   45 1
    37   26   27 ar
    38   26   46 1
    39   27   28 ar
    40   27   30 1
    41   28   29 ar
    42   28   47 1
    43   29   48 1
    44   30   31 1
    45   31   32 1
    46   31   49 1
    47   31   50 1
    48   32   33 1
    49   32   51 1
    50   32   52 1
    51   33   38 1
    52   33   34 1
    53   33   64 1
    54   34   35 1
    55   34   53 1
    56   34   54 1
    57   35   36 1
    58   35   55 1
    59   35   56 1
    60   36   37 1
    61   36   57 1
    62   36   58 1
    63   37   38 1
    64   37   59 1
    65   37   60 1
    66   38   61 1
    67   38   62 1
    68   39   63 1
@<TRIPOS>MOLECULE
CHEMBL1087811
   65    70     0     0     0
SMALL
USER_CHARGES

@<TRIPOS>ATOM
      1 C1          0.0142    1.3754   -0.1298 C.ar      1 <0>        -0.0579
      2 C2          1.1991    2.0823   -0.0606 C.ar      1 <0>        -0.1500
      3 C3          2.4110    1.4087   -0.1065 C.ar      1 <0>         0.1422
      4 C4          2.4297    0.0264   -0.2219 C.ar      1 <0>        -0.2076
      5 C5          1.2420   -0.6759   -0.2908 C.ar      1 <0>        -0.0633
      6 C6          0.0355   -0.0023   -0.2448 C.ar      1 <0>        -0.1552
      7 C7         -1.2586   -0.7709   -0.3197 C.3       1 <0>         0.1937
      8 H1         -2.0667   -0.0892   -0.5848 H         1 <0>         0.1300
      9 C8         -1.5485   -1.3859    1.0221 C.2       1 <0>        -0.1041
     10 C9         -1.0890   -2.6276    1.3019 C.2       1 <0>        -0.0459
     11 C10        -1.3988   -3.2527    2.6345 C.3       1 <0>        -0.1191
     12 C11        -0.5726   -2.5965    3.7393 C.3       1 <0>         0.0753
     13 O1         -0.5748   -1.1807    3.6130 O.3       1 <0>        -0.3213
     14 C12        -1.7593   -0.5721    3.3486 C.ar      1 <0>         0.1345
     15 C13        -2.2919   -0.6456    2.0504 C.ar      1 <0>        -0.0789
     16 C14        -3.5048   -0.0233    1.7596 C.ar      1 <0>        -0.0754
     17 C15        -4.1781    0.6602    2.7510 C.ar      1 <0>        -0.1496
     18 C16        -3.6518    0.7296    4.0348 C.ar      1 <0>         0.1283
     19 C17        -2.4434    0.1136    4.3329 C.ar      1 <0>        -0.1581
     20 O2         -4.3232    1.4043    5.0043 O.3       1 <0>        -0.4951
     21 C18        -0.3124   -3.3362    0.2760 C.ar      1 <0>        -0.1267
     22 C19         0.4674   -4.4485    0.5826 C.ar      1 <0>        -0.0574
     23 C20         1.1793   -5.0797   -0.4167 C.ar      1 <0>        -0.1705
     24 C21         1.1203   -4.6090   -1.7228 C.ar      1 <0>         0.1460
     25 C22         0.3448   -3.5009   -2.0369 C.ar      1 <0>        -0.1743
     26 C23        -0.3740   -2.8616   -1.0465 C.ar      1 <0>         0.1536
     27 O3         -1.1481   -1.7823   -1.3216 O.3       1 <0>        -0.2971
     28 O4          1.8266   -5.2369   -2.6990 O.3       1 <0>        -0.4950
     29 O5          3.5780    2.1019   -0.0390 O.3       1 <0>        -0.2959
     30 C24         4.7875    1.3428   -0.0921 C.3       1 <0>         0.0659
     31 C25         5.9872    2.2881   -0.0034 C.3       1 <0>         0.0550
     32 N1          5.9858    2.9598    1.3031 N.3       1 <0>        -0.5303
     33 C26         6.8009    4.1828    1.2676 C.3       1 <0>         0.0187
     34 C27         6.7235    4.8808    2.6279 C.3       1 <0>         0.0629
     35 O6          7.1512    3.9745    3.6482 O.3       1 <0>        -0.3852
     36 C28         6.3787    2.7727    3.7115 C.3       1 <0>         0.0638
     37 C29         6.4526    2.0532    2.3621 C.3       1 <0>         0.0145
     38 H2         -0.9296    1.8990   -0.0895 H         1 <0>         0.1296
     39 H3          1.1819    3.1585    0.0289 H         1 <0>         0.1330
     40 H4          3.3719   -0.5003   -0.2582 H         1 <0>         0.1255
     41 H5          1.2560   -1.7521   -0.3806 H         1 <0>         0.1258
     42 H6         -2.4588   -3.1248    2.8540 H         1 <0>         0.0841
     43 H7         -1.1661   -4.3168    2.5954 H         1 <0>         0.0933
     44 H8         -0.9913   -2.8692    4.7080 H         1 <0>         0.0633
     45 H9          0.4538   -2.9586    3.6804 H         1 <0>         0.1021
     46 H10        -3.9156   -0.0758    0.7622 H         1 <0>         0.1353
     47 H11        -5.1179    1.1435    2.5281 H         1 <0>         0.1361
     48 H12        -2.0392    0.1709    5.3328 H         1 <0>         0.1385
     49 H13        -4.9484    0.8594    5.5017 H         1 <0>         0.3943
     50 H14         0.5149   -4.8151    1.5974 H         1 <0>         0.1345
     51 H15         1.7851   -5.9427   -0.1828 H         1 <0>         0.1354
     52 H16         0.3040   -3.1397   -3.0539 H         1 <0>         0.1415
     53 H17         1.3411   -5.9470   -3.1408 H         1 <0>         0.3964
     54 H18         4.8140    0.6427    0.7429 H         1 <0>         0.0621
     55 H19         4.8288    0.7904   -1.0308 H         1 <0>         0.0672
     56 H20         6.9088    1.7173   -0.1174 H         1 <0>         0.0617
     57 H21         5.9215    3.0340   -0.7955 H         1 <0>         0.0885
     58 H22         7.8370    3.9234    1.0500 H         1 <0>         0.0434
     59 H23         6.4220    4.8504    0.4938 H         1 <0>         0.0885
     60 H24         7.3715    5.7573    2.6247 H         1 <0>         0.0993
     61 H25         5.6958    5.1880    2.8215 H         1 <0>         0.0615
     62 H26         6.7773    2.1244    4.4919 H         1 <0>         0.0987
     63 H27         5.3409    3.0185    3.9365 H         1 <0>         0.0612
     64 H28         5.8194    1.1664    2.3873 H         1 <0>         0.0846
     65 H29         7.4831    1.7598    2.1620 H         1 <0>         0.0443
@<TRIPOS>BOND
     1    1    6 ar
     2    1    2 ar
     3    1   38 1
     4    2    3 ar
     5    2   39 1
     6    3    4 ar
     7    3   29 1
     8    4    5 ar
     9    4   40 1
    10    5    6 ar
    11    5   41 1
    12    6    7 1
    13    7    8 1
    14    7   27 1
    15    7    9 1
    16    9   15 1
    17    9   10 2
    18   10   11 1
    19   10   21 1
    20   11   12 1
    21   11   42 1
    22   11   43 1
    23   12   13 1
    24   12   44 1
    25   12   45 1
    26   13   14 1
    27   14   19 ar
    28   14   15 ar
    29   15   16 ar
    30   16   17 ar
    31   16   46 1
    32   17   18 ar
    33   17   47 1
    34   18   19 ar
    35   18   20 1
    36   19   48 1
    37   20   49 1
    38   21   26 ar
    39   21   22 ar
    40   22   23 ar
    41   22   50 1
    42   23   24 ar
    43   23   51 1
    44   24   25 ar
    45   24   28 1
    46   25   26 ar
    47   25   52 1
    48   26   27 1
    49   28   53 1
    50   29   30 1
    51   30   31 1
    52   30   54 1
    53   30   55 1
    54   31   32 1
    55   31   56 1
    56   31   57 1
    57   32   37 1
    58   32   33 1
    59   33   34 1
    60   33   58 1
    61   33   59 1
    62   34   35 1
    63   34   60 1
    64   34   61 1
    65   35   36 1
    66   36   37 1
    67   36   62 1
    68   36   63 1
    69   37   64 1
    70   37   65 1
@<TRIPOS>MOLECULE
CHEMBL1087811__1
   66    71     0     0     0
SMALL
USER_CHARGES

@<TRIPOS>ATOM
      1 C1          0.0053    1.0918    0.2531 C.ar      1 <0>        -0.0569
      2 C2          1.1491    1.8662    0.2354 C.ar      1 <0>        -0.1383
      3 C3          2.3940    1.2606    0.1447 C.ar      1 <0>         0.1180
      4 C4          2.4867   -0.1217    0.0720 C.ar      1 <0>        -0.1974
      5 C5          1.3398   -0.8916    0.0900 C.ar      1 <0>        -0.0636
      6 C6          0.1003   -0.2856    0.1805 C.ar      1 <0>        -0.1298
      7 C7         -1.1492   -1.1280    0.2004 C.3       1 <0>         0.1890
      8 H1         -2.0102   -0.4991   -0.0260 H         1 <0>         0.1336
      9 C8         -1.3202   -1.7293    1.5686 C.2       1 <0>        -0.1102
     10 C9         -0.7732   -2.9366    1.8416 C.2       1 <0>        -0.0385
     11 C10        -0.9639   -3.5492    3.2020 C.3       1 <0>        -0.1221
     12 C11        -0.1111   -2.8235    4.2410 C.3       1 <0>         0.0757
     13 O1         -0.2031   -1.4131    4.0896 O.3       1 <0>        -0.3253
     14 C12        -1.4349   -0.8786    3.8886 C.ar      1 <0>         0.1312
     15 C13        -2.0408   -1.0102    2.6277 C.ar      1 <0>        -0.0821
     16 C14        -3.3033   -0.4643    2.4020 C.ar      1 <0>        -0.0748
     17 C15        -3.9531    0.2013    3.4210 C.ar      1 <0>        -0.1478
     18 C16        -3.3540    0.3281    4.6679 C.ar      1 <0>         0.1318
     19 C17        -2.0960   -0.2117    4.9012 C.ar      1 <0>        -0.1585
     20 O2         -4.0027    0.9844    5.6651 O.3       1 <0>        -0.4956
     21 C18        -0.0211   -3.6219    0.7822 C.ar      1 <0>        -0.1307
     22 C19         0.8392   -4.6813    1.0596 C.ar      1 <0>        -0.0558
     23 C20         1.5240   -5.2925    0.0294 C.ar      1 <0>        -0.1692
     24 C21         1.3579   -4.8542   -1.2789 C.ar      1 <0>         0.1493
     25 C22         0.5016   -3.7990   -1.5639 C.ar      1 <0>        -0.1744
     26 C23        -0.1911   -3.1803   -0.5423 C.ar      1 <0>         0.1491
     27 O3         -1.0418   -2.1529   -0.7880 O.3       1 <0>        -0.2943
     28 O4          2.0382   -5.4621   -2.2857 O.3       1 <0>        -0.4959
     29 O5          3.5208    2.0202    0.1267 O.3       1 <0>        -0.3281
     30 C24         4.7678    1.3288    0.0317 C.3       1 <0>         0.0249
     31 C25         5.9137    2.3426    0.0252 C.3       1 <0>         0.0004
     32 N1          5.9485    3.0506    1.3118 N.4       1 <0>        -0.3871
     33 C26         6.9494    4.1248    1.2531 C.3       1 <0>        -0.0435
     34 C27         6.9835    4.8610    2.5947 C.3       1 <0>         0.0354
     35 O6          7.2758    3.9271    3.6378 O.3       1 <0>        -0.3558
     36 C28         6.3411    2.8476    3.7200 C.3       1 <0>         0.0373
     37 C29         6.3058    2.1075    2.3805 C.3       1 <0>        -0.0501
     38 H2         -0.9638    1.5626    0.3282 H         1 <0>         0.1377
     39 H3          1.0744    2.9421    0.2918 H         1 <0>         0.1358
     40 H4          3.4546   -0.5955    0.0009 H         1 <0>         0.1275
     41 H5          1.4114   -1.9678    0.0334 H         1 <0>         0.1338
     42 H6         -2.0141   -3.4769    3.4849 H         1 <0>         0.0866
     43 H7         -0.6728   -4.5990    3.1676 H         1 <0>         0.0954
     44 H8         -0.4531   -3.0985    5.2387 H         1 <0>         0.0655
     45 H9          0.9291   -3.1279    4.1247 H         1 <0>         0.1014
     46 H10        -3.7708   -0.5615    1.4333 H         1 <0>         0.1361
     47 H11        -4.9312    0.6255    3.2484 H         1 <0>         0.1382
     48 H12        -1.6353   -0.1099    5.8727 H         1 <0>         0.1387
     49 H13        -4.5637    0.4159    6.2103 H         1 <0>         0.3978
     50 H14         0.9700   -5.0225    2.0759 H         1 <0>         0.1360
     51 H15         2.1919   -6.1145    0.2406 H         1 <0>         0.1375
     52 H16         0.3777   -3.4628   -2.5827 H         1 <0>         0.1425
     53 H17         1.5686   -6.2080   -2.6835 H         1 <0>         0.4006
     54 H18         4.8787    0.6606    0.8856 H         1 <0>         0.0860
     55 H19         4.7916    0.7476   -0.8901 H         1 <0>         0.1113
     56 H20         6.8588    1.8217   -0.1286 H         1 <0>         0.1508
     57 H21         5.7593    3.0604   -0.7805 H         1 <0>         0.1450
     58 H22         7.9306    3.6967    1.0482 H         1 <0>         0.1401
     59 H23         6.6852    4.8250    0.4606 H         1 <0>         0.1441
     60 H24         7.7552    5.6304    2.5681 H         1 <0>         0.1433
     61 H25         6.0141    5.3232    2.7810 H         1 <0>         0.0819
     62 H26         6.6479    2.1597    4.5079 H         1 <0>         0.1427
     63 H27         5.3497    3.2408    3.9448 H         1 <0>         0.0820
     64 H28         5.5638    1.3103    2.4250 H         1 <0>         0.1398
     65 H29         7.2873    1.6802    2.1752 H         1 <0>         0.1414
     66 H30         5.0403    3.4468    1.5025 H         1 <0>         0.4304
@<TRIPOS>BOND
     1    1    6 ar
     2    1    2 ar
     3    1   38 1
     4    2    3 ar
     5    2   39 1
     6    3    4 ar
     7    3   29 1
     8    4    5 ar
     9    4   40 1
    10    5    6 ar
    11    5   41 1
    12    6    7 1
    13    7    8 1
    14    7   27 1
    15    7    9 1
    16    9   15 1
    17    9   10 2
    18   10   11 1
    19   10   21 1
    20   11   12 1
    21   11   42 1
    22   11   43 1
    23   12   13 1
    24   12   44 1
    25   12   45 1
    26   13   14 1
    27   14   19 ar
    28   14   15 ar
    29   15   16 ar
    30   16   17 ar
    31   16   46 1
    32   17   18 ar
    33   17   47 1
    34   18   19 ar
    35   18   20 1
    36   19   48 1
    37   20   49 1
    38   21   26 ar
    39   21   22 ar
    40   22   23 ar
    41   22   50 1
    42   23   24 ar
    43   23   51 1
    44   24   25 ar
    45   24   28 1
    46   25   26 ar
    47   25   52 1
    48   26   27 1
    49   28   53 1
    50   29   30 1
    51   30   31 1
    52   30   54 1
    53   30   55 1
    54   31   32 1
    55   31   56 1
    56   31   57 1
    57   32   37 1
    58   32   33 1
    59   32   66 1
    60   33   34 1
    61   33   58 1
    62   33   59 1
    63   34   35 1
    64   34   60 1
    65   34   61 1
    66   35   36 1
    67   36   37 1
    68   36   62 1
    69   36   63 1
    70   37   64 1
    71   37   65 1
@<TRIPOS>MOLECULE
CHEMBL398552
   74    80     0     0     0
SMALL
USER_CHARGES

@<TRIPOS>ATOM
      1 C1         -0.0187    1.5258    0.0104 C.3       1 <0>        -0.1379
      2 C2          0.0021   -0.0041    0.0020 C.3       1 <0>        -0.0416
      3 C3         -1.4064   -0.5323    0.1772 C.3       1 <0>        -0.0997
      4 C4         -1.9756    0.0797    1.4714 C.3       1 <0>        -0.1133
      5 C5         -1.0851   -0.2532    2.6598 C.3       1 <0>        -0.0413
      6 H1         -1.0806   -1.3360    2.7843 H         1 <0>         0.0760
      7 C6         -1.6005    0.3571    3.9311 C.ar      1 <0>        -0.0761
      8 C7         -2.9742    0.4710    4.0964 C.ar      1 <0>        -0.1027
      9 C8         -3.5002    1.0150    5.2487 C.ar      1 <0>        -0.1470
     10 C9         -2.6480    1.4512    6.2530 C.ar      1 <0>         0.1018
     11 C10        -1.2787    1.3413    6.0863 C.ar      1 <0>        -0.1481
     12 C11        -0.7495    0.7994    4.9225 C.ar      1 <0>        -0.0581
     13 C12         0.7502    0.7384    4.8002 C.3       1 <0>        -0.0819
     14 C13         1.1786   -0.1827    3.6588 C.3       1 <0>        -0.1128
     15 C14         0.3612    0.2021    2.4252 C.3       1 <0>        -0.0742
     16 H2          0.3879    1.2814    2.2748 H         1 <0>         0.0877
     17 C15         0.8604   -0.5199    1.1907 C.3       1 <0>        -0.0804
     18 H3          0.7388   -1.5961    1.3133 H         1 <0>         0.0783
     19 C16         2.2767   -0.1707    0.7204 C.3       1 <0>        -0.1105
     20 C17         2.2489   -0.5546   -0.7844 C.3       1 <0>        -0.1428
     21 C18         0.7638   -0.4984   -1.2221 C.3       1 <0>         0.2644
     22 C19         0.2945   -1.8392   -1.6079 C.1       1 <0>        -0.2051
     23 C20        -0.0798   -2.9086   -1.9155 C.1       1 <0>        -0.0610
     24 C21        -0.5363   -4.2130   -2.2908 C.2       1 <0>        -0.0568
     25 C22        -1.5883   -5.0020   -1.6307 C.ar      1 <0>        -0.0819
     26 C23        -2.4143   -4.7754   -0.5295 C.ar      1 <0>        -0.0687
     27 C24        -3.3182   -5.7282   -0.1506 C.ar      1 <0>        -0.1398
     28 C25        -3.4199   -6.9204   -0.8536 C.ar      1 <0>        -0.0969
     29 C26        -2.6135   -7.1639   -1.9440 C.ar      1 <0>        -0.1269
     30 C27        -1.6865   -6.2071   -2.3472 C.ar      1 <0>         0.0996
     31 N1         -0.7654   -6.1669   -3.3730 N.pl3     1 <0>        -0.5793
     32 H4         -0.6249   -6.8750   -4.0208 H         1 <0>         0.4189
     33 C28        -0.0800   -4.9773   -3.3485 C.2       1 <0>         0.1683
     34 C29         0.9774   -4.5800   -4.2971 C.ar      1 <0>        -0.0843
     35 C30         0.6719   -4.3777   -5.6449 C.ar      1 <0>        -0.0576
     36 C31         1.6651   -4.0064   -6.5265 C.ar      1 <0>        -0.1585
     37 C32         2.9646   -3.8330   -6.0814 C.ar      1 <0>        -0.0631
     38 C33         3.2796   -4.0301   -4.7500 C.ar      1 <0>        -0.2115
     39 C34         2.2930   -4.3976   -3.8499 C.ar      1 <0>         0.1643
     40 O1          2.6005   -4.5860   -2.5405 O.3       1 <0>        -0.2991
     41 C35         3.9621   -4.3820   -2.1579 C.3       1 <0>         0.0248
     42 O2          0.6019    0.4156   -2.3086 O.3       1 <0>        -0.5417
     43 O3         -3.1559    1.9844    7.3952 O.3       1 <0>        -0.5004
     44 H5          1.0033    1.9032   -0.0250 H         1 <0>         0.0567
     45 H6         -0.5695    1.8864   -0.8582 H         1 <0>         0.0637
     46 H7         -0.5045    1.8775    0.9205 H         1 <0>         0.0632
     47 H8         -2.0207   -0.2365   -0.6732 H         1 <0>         0.0669
     48 H9         -1.3862   -1.6190    0.2597 H         1 <0>         0.0670
     49 H10        -2.0364    1.1623    1.3603 H         1 <0>         0.0706
     50 H11        -2.9745   -0.3191    1.6483 H         1 <0>         0.0653
     51 H12        -3.6371    0.1306    3.3147 H         1 <0>         0.1278
     52 H13        -4.5700    1.1016    5.3689 H         1 <0>         0.1271
     53 H14        -0.6155    1.6804    6.8684 H         1 <0>         0.1254
     54 H15         1.1338    1.7413    4.6125 H         1 <0>         0.0777
     55 H16         1.1695    0.3666    5.7351 H         1 <0>         0.0741
     56 H17         2.2408   -0.0469    3.4558 H         1 <0>         0.0717
     57 H18         0.9854   -1.2202    3.9313 H         1 <0>         0.0651
     58 H19         2.4720    0.8946    0.8429 H         1 <0>         0.0749
     59 H20         3.0180   -0.7638    1.2560 H         1 <0>         0.0672
     60 H21         2.8367    0.1577   -1.3632 H         1 <0>         0.0790
     61 H22         2.6412   -1.5624   -0.9207 H         1 <0>         0.0698
     62 H23        -2.3395   -3.8499    0.0222 H         1 <0>         0.1219
     63 H24        -3.9574   -5.5522    0.7020 H         1 <0>         0.1248
     64 H25        -4.1380   -7.6648   -0.5428 H         1 <0>         0.1275
     65 H26        -2.7001   -8.0951   -2.4842 H         1 <0>         0.1225
     66 H27        -0.3405   -4.5123   -5.9962 H         1 <0>         0.1313
     67 H28         1.4284   -3.8505   -7.5687 H         1 <0>         0.1301
     68 H29         3.7367   -3.5424   -6.7785 H         1 <0>         0.1294
     69 H30         4.2957   -3.8932   -4.4104 H         1 <0>         0.1336
     70 H31         4.6019   -5.0698   -2.7109 H         1 <0>         0.0562
     71 H32         4.2526   -3.3556   -2.3822 H         1 <0>         0.0580
     72 H33         4.0705   -4.5649   -1.0888 H         1 <0>         0.1015
     73 H34         1.0650    0.1529   -3.1159 H         1 <0>         0.3773
     74 H35        -3.3231    1.3350    8.0920 H         1 <0>         0.3897
@<TRIPOS>BOND
     1    1    2 1
     2    1   44 1
     3    1   45 1
     4    1   46 1
     5    2   17 1
     6    2   21 1
     7    2    3 1
     8    3    4 1
     9    3   47 1
    10    3   48 1
    11    4    5 1
    12    4   49 1
    13    4   50 1
    14    5    6 1
    15    5   15 1
    16    5    7 1
    17    7   12 ar
    18    7    8 ar
    19    8    9 ar
    20    8   51 1
    21    9   10 ar
    22    9   52 1
    23   10   11 ar
    24   10   43 1
    25   11   12 ar
    26   11   53 1
    27   12   13 1
    28   13   14 1
    29   13   54 1
    30   13   55 1
    31   14   15 1
    32   14   56 1
    33   14   57 1
    34   15   16 1
    35   15   17 1
    36   17   18 1
    37   17   19 1
    38   19   20 1
    39   19   58 1
    40   19   59 1
    41   20   21 1
    42   20   60 1
    43   20   61 1
    44   21   22 1
    45   21   42 1
    46   22   23 3
    47   23   24 1
    48   24   33 2
    49   24   25 1
    50   25   30 ar
    51   25   26 ar
    52   26   27 ar
    53   26   62 1
    54   27   28 ar
    55   27   63 1
    56   28   29 ar
    57   28   64 1
    58   29   30 ar
    59   29   65 1
    60   30   31 1
    61   31   32 1
    62   31   33 1
    63   33   34 1
    64   34   39 ar
    65   34   35 ar
    66   35   36 ar
    67   35   66 1
    68   36   37 ar
    69   36   67 1
    70   37   38 ar
    71   37   68 1
    72   38   39 ar
    73   38   69 1
    74   39   40 1
    75   40   41 1
    76   41   70 1
    77   41   71 1
    78   41   72 1
    79   42   73 1
    80   43   74 1
@<TRIPOS>MOLECULE
CHEMBL95882
   53    58     0     0     0
SMALL
USER_CHARGES

@<TRIPOS>ATOM
      1 C1         -0.0479    1.3314   -0.0464 C.ar      1 <0>        -0.1163
      2 C2          1.1293    2.0759   -0.0521 C.ar      1 <0>        -0.1101
      3 C3          2.3461    1.4624   -0.0497 C.ar      1 <0>        -0.1079
      4 C4          2.4178    0.0630   -0.0415 C.ar      1 <0>        -0.0247
      5 C5          1.2223   -0.6959   -0.0358 C.ar      1 <0>        -0.0506
      6 C6         -0.0155   -0.0296   -0.0385 C.ar      1 <0>        -0.1030
      7 C7          1.2928   -2.0997   -0.0271 C.ar      1 <0>        -0.0948
      8 C8          2.5046   -2.7238   -0.0242 C.ar      1 <0>        -0.1147
      9 C9          3.6879   -1.9967   -0.0293 C.ar      1 <0>        -0.0831
     10 C10         3.6656   -0.6095   -0.0384 C.ar      1 <0>        -0.0199
     11 C11         4.9262    0.1570   -0.0442 C.2       1 <0>        -0.0258
     12 C12         5.6898    0.6209    1.1234 C.ar      1 <0>        -0.1409
     13 C13         5.5091    0.5121    2.5031 C.ar      1 <0>        -0.0349
     14 C14         6.4219    1.0674    3.3534 C.ar      1 <0>        -0.1579
     15 C15         7.5323    1.7422    2.8501 C.ar      1 <0>         0.1528
     16 C16         7.7258    1.8593    1.4850 C.ar      1 <0>        -0.1434
     17 C17         6.8073    1.2994    0.6058 C.ar      1 <0>         0.0913
     18 O1          6.7380    1.2572   -0.7399 O.3       1 <0>        -0.1697
     19 C18         5.6422    0.5855   -1.1523 C.2       1 <0>        -0.0424
     20 C19         5.2678    0.3501   -2.5450 C.2       1 <0>         0.4755
     21 O2          4.3048   -0.3487   -2.8072 O.2       1 <0>        -0.4082
     22 C20         6.0565    0.9593   -3.6348 C.ar      1 <0>        -0.1607
     23 C21         5.6246    0.8461   -4.9590 C.ar      1 <0>        -0.0446
     24 C22         6.3608    1.4144   -5.9766 C.ar      1 <0>        -0.1299
     25 C23         7.5316    2.1000   -5.6844 C.ar      1 <0>         0.1045
     26 C24         7.9665    2.2168   -4.3688 C.ar      1 <0>         0.0535
     27 C25         7.2338    1.6552   -3.3425 C.ar      1 <0>        -0.0660
     28 O3          9.1193    2.8957   -4.0979 O.3       1 <0>        -0.3146
     29 C26        10.3272    2.2833   -4.5536 C.3       1 <0>         0.0577
     30 C27        10.5942    2.6343   -6.0089 C.3       1 <0>        -0.1894
     31 C28         9.5361    2.0698   -6.9438 C.3       1 <0>         0.0604
     32 O4          8.2628    2.6649   -6.6869 O.3       1 <0>        -0.3182
     33 O5          8.4323    2.2902    3.7070 O.3       1 <0>        -0.4901
     34 H1         -1.0000    1.8412   -0.0438 H         1 <0>         0.1248
     35 H2          1.0770    3.1546   -0.0587 H         1 <0>         0.1236
     36 H3          3.2510    2.0520   -0.0546 H         1 <0>         0.1196
     37 H4         -0.9360   -0.5945   -0.0338 H         1 <0>         0.1292
     38 H5          0.3851   -2.6849   -0.0223 H         1 <0>         0.1294
     39 H6          2.5453   -3.8030   -0.0175 H         1 <0>         0.1279
     40 H7          4.6347   -2.5162   -0.0265 H         1 <0>         0.1234
     41 H8          4.6494   -0.0096    2.8971 H         1 <0>         0.1369
     42 H9          6.2824    0.9834    4.4211 H         1 <0>         0.1417
     43 H10         8.5890    2.3847    1.1039 H         1 <0>         0.1446
     44 H11         4.7133    0.3126   -5.1854 H         1 <0>         0.1471
     45 H12         6.0270    1.3259   -7.0000 H         1 <0>         0.1460
     46 H13         7.5700    1.7490   -2.3205 H         1 <0>         0.1570
     47 H14        11.1593    2.6321   -3.9420 H         1 <0>         0.1078
     48 H15        10.2399    1.2012   -4.4558 H         1 <0>         0.0586
     49 H16        10.6144    3.7191   -6.1125 H         1 <0>         0.0865
     50 H17        11.5674    2.2358   -6.2955 H         1 <0>         0.0942
     51 H18         9.8246    2.2712   -7.9754 H         1 <0>         0.1092
     52 H19         9.4648    0.9922   -6.7959 H         1 <0>         0.0601
     53 H20         9.1519    1.6941    3.9558 H         1 <0>         0.3986
@<TRIPOS>BOND
     1    1    6 ar
     2    1    2 ar
     3    1   34 1
     4    2    3 ar
     5    2   35 1
     6    3    4 ar
     7    3   36 1
     8    4   10 ar
     9    4    5 ar
    10    5    6 ar
    11    5    7 ar
    12    6   37 1
    13    7    8 ar
    14    7   38 1
    15    8    9 ar
    16    8   39 1
    17    9   10 ar
    18    9   40 1
    19   10   11 1
    20   11   19 2
    21   11   12 1
    22   12   17 ar
    23   12   13 ar
    24   13   14 ar
    25   13   41 1
    26   14   15 ar
    27   14   42 1
    28   15   16 ar
    29   15   33 1
    30   16   17 ar
    31   16   43 1
    32   17   18 1
    33   18   19 1
    34   19   20 1
    35   20   21 2
    36   20   22 1
    37   22   27 ar
    38   22   23 ar
    39   23   24 ar
    40   23   44 1
    41   24   25 ar
    42   24   45 1
    43   25   32 1
    44   25   26 ar
    45   26   27 ar
    46   26   28 1
    47   27   46 1
    48   28   29 1
    49   29   30 1
    50   29   47 1
    51   29   48 1
    52   30   31 1
    53   30   49 1
    54   30   50 1
    55   31   32 1
    56   31   51 1
    57   31   52 1
    58   33   53 1
@<TRIPOS>MOLECULE
CHEMBL222454
   42    45     0     0     0
SMALL
USER_CHARGES

@<TRIPOS>ATOM
      1 C1         -0.0168    1.3848    0.0097 C.ar      1 <0>        -0.1485
      2 C2          1.1488    2.0959    0.0023 C.ar      1 <0>        -0.0336
      3 C3          2.3730    1.4233   -0.0129 C.ar      1 <0>        -0.1549
      4 C4          2.3984    0.0169   -0.0207 C.ar      1 <0>         0.1370
      5 C5          1.1967   -0.6894   -0.0130 C.ar      1 <0>        -0.0622
      6 C6          0.0021   -0.0041    0.0020 C.ar      1 <0>        -0.0556
      7 Cl1         1.2057   -2.4254   -0.0218 Cl        1 <0>        -0.0611
      8 N1          3.7175   -0.3586   -0.0352 N.pl3     1 <0>        -0.3839
      9 N2          4.5229    0.7847   -0.0368 N.2       1 <0>        -0.2258
     10 C7          3.7733    1.8601   -0.0239 C.2       1 <0>         0.1354
     11 C8          4.2534    3.2623   -0.0214 C.ar      1 <0>        -0.0267
     12 C9          3.5350    4.2481   -0.6972 C.ar      1 <0>        -0.0775
     13 C10         3.9841    5.5518   -0.6925 C.ar      1 <0>        -0.1437
     14 C11         5.1505    5.8834   -0.0164 C.ar      1 <0>         0.1180
     15 C12         5.8684    4.9043    0.6570 C.ar      1 <0>        -0.1444
     16 C13         5.4214    3.5998    0.6614 C.ar      1 <0>        -0.0701
     17 O1          5.5907    7.1690   -0.0141 O.3       1 <0>        -0.4987
     18 C14         4.2059   -1.7398   -0.0465 C.3       1 <0>         0.1532
     19 C15         5.0680   -1.9860    1.1933 C.3       1 <0>        -0.1265
     20 C16         5.5780   -3.4285    1.1815 C.3       1 <0>        -0.1164
     21 C17         6.4159   -3.6629   -0.0771 C.3       1 <0>        -0.1236
     22 C18         5.5538   -3.4166   -1.3168 C.3       1 <0>        -0.1165
     23 C19         5.0438   -1.9742   -1.3051 C.3       1 <0>        -0.1267
     24 H1         -0.9620    1.9069    0.0260 H         1 <0>         0.1397
     25 H2          1.1243    3.1757    0.0080 H         1 <0>         0.1352
     26 H3         -0.9288   -0.5517    0.0083 H         1 <0>         0.1425
     27 H4          2.6279    3.9907   -1.2239 H         1 <0>         0.1326
     28 H5          3.4282    6.3158   -1.2157 H         1 <0>         0.1356
     29 H6          6.7756    5.1655    1.1816 H         1 <0>         0.1344
     30 H7          5.9778    2.8395    1.1895 H         1 <0>         0.1323
     31 H8          5.2489    7.7005    0.7179 H         1 <0>         0.3940
     32 H9          3.3582   -2.4249   -0.0415 H         1 <0>         0.1158
     33 H10         5.9157   -1.3008    1.1883 H         1 <0>         0.0764
     34 H11         4.4711   -1.8190    2.0899 H         1 <0>         0.0660
     35 H12         6.1922   -3.6039    2.0647 H         1 <0>         0.0714
     36 H13         4.7303   -4.1136    1.1865 H         1 <0>         0.0647
     37 H14         7.2636   -2.9777   -0.0820 H         1 <0>         0.0659
     38 H15         6.7793   -4.6905   -0.0854 H         1 <0>         0.0678
     39 H16         6.1507   -3.5836   -2.2135 H         1 <0>         0.0714
     40 H17         4.7061   -4.1018   -1.3119 H         1 <0>         0.0647
     41 H18         4.4296   -1.7987   -2.1883 H         1 <0>         0.0660
     42 H19         5.8915   -1.2890   -1.3100 H         1 <0>         0.0766
@<TRIPOS>BOND
     1    1    6 ar
     2    1    2 ar
     3    1   24 1
     4    2    3 ar
     5    2   25 1
     6    3   10 1
     7    3    4 ar
     8    4    5 ar
     9    4    8 1
    10    5    6 ar
    11    5    7 1
    12    6   26 1
    13    8    9 1
    14    8   18 1
    15    9   10 2
    16   10   11 1
    17   11   16 ar
    18   11   12 ar
    19   12   13 ar
    20   12   27 1
    21   13   14 ar
    22   13   28 1
    23   14   15 ar
    24   14   17 1
    25   15   16 ar
    26   15   29 1
    27   16   30 1
    28   17   31 1
    29   18   23 1
    30   18   19 1
    31   18   32 1
    32   19   20 1
    33   19   33 1
    34   19   34 1
    35   20   21 1
    36   20   35 1
    37   20   36 1
    38   21   22 1
    39   21   37 1
    40   21   38 1
    41   22   23 1
    42   22   39 1
    43   22   40 1
    44   23   41 1
    45   23   42 1
@<TRIPOS>MOLECULE
CHEMBL386502
   38    40     0     0     0
SMALL
USER_CHARGES

@<TRIPOS>ATOM
      1 C1         -0.0187    1.5258    0.0104 C.3       1 <0>        -0.1607
      2 C2          0.0021   -0.0041    0.0020 C.3       1 <0>         0.1359
      3 C3          0.7421   -0.5109    1.2415 C.3       1 <0>        -0.1607
      4 N1         -1.3723   -0.5112    0.0124 N.pl3     1 <0>        -0.3848
      5 C4         -1.9310   -1.3097   -0.9524 C.ar      1 <0>         0.1680
      6 C5         -3.2572   -1.5632   -0.5567 C.ar      1 <0>        -0.1678
      7 C6         -4.0803   -2.3592   -1.3564 C.ar      1 <0>        -0.0031
      8 C7         -3.5932   -2.8868   -2.5178 C.ar      1 <0>        -0.1645
      9 C8         -2.2847   -2.6394   -2.9127 C.ar      1 <0>        -0.0107
     10 C9         -1.4550   -1.8582   -2.1411 C.ar      1 <0>        -0.2142
     11 C10        -0.0374   -1.5970   -2.5805 C.3       1 <0>         0.5086
     12 F1          0.2022   -2.2493   -3.7947 F         1 <0>        -0.1696
     13 F2          0.1539   -0.2209   -2.7448 F         1 <0>        -0.1729
     14 F3          0.8479   -2.0782   -1.6099 F         1 <0>        -0.1731
     15 C11        -3.4490   -0.8575    0.7149 C.2       1 <0>         0.1424
     16 N2         -2.3194   -0.2620    1.0108 N.2       1 <0>        -0.2248
     17 C12        -4.6920   -0.8285    1.5217 C.ar      1 <0>        -0.0293
     18 C13        -5.9353   -0.8334    0.8902 C.ar      1 <0>        -0.0770
     19 C14        -7.0898   -0.8069    1.6438 C.ar      1 <0>        -0.1437
     20 C15        -7.0153   -0.7753    3.0298 C.ar      1 <0>         0.1196
     21 C16        -5.7791   -0.7703    3.6617 C.ar      1 <0>        -0.1443
     22 C17        -4.6208   -0.8021    2.9141 C.ar      1 <0>        -0.0688
     23 O1         -8.1549   -0.7488    3.7695 O.3       1 <0>        -0.4985
     24 H1          1.0039    1.9031    0.0027 H         1 <0>         0.0783
     25 H2         -0.5459    1.8868   -0.8726 H         1 <0>         0.0617
     26 H3         -0.5289    1.8773    0.9072 H         1 <0>         0.0712
     27 H4          0.5123   -0.3556   -0.8948 H         1 <0>         0.1112
     28 H5          0.2319   -0.1594    2.1383 H         1 <0>         0.0710
     29 H6          0.7568   -1.6008    1.2356 H         1 <0>         0.0617
     30 H7          1.7647   -0.1336    1.2338 H         1 <0>         0.0784
     31 H8         -5.0989   -2.5570   -1.0569 H         1 <0>         0.1388
     32 H9         -4.2311   -3.5023   -3.1348 H         1 <0>         0.1430
     33 H10        -1.9147   -3.0645   -3.8340 H         1 <0>         0.1474
     34 H11        -5.9939   -0.8576   -0.1880 H         1 <0>         0.1326
     35 H12        -8.0530   -0.8104    1.1553 H         1 <0>         0.1362
     36 H13        -5.7247   -0.7454    4.7400 H         1 <0>         0.1350
     37 H14        -3.6595   -0.8027    3.4063 H         1 <0>         0.1330
     38 H15        -8.4920   -1.6243    4.0041 H         1 <0>         0.3945
@<TRIPOS>BOND
     1    1    2 1
     2    1   24 1
     3    1   25 1
     4    1   26 1
     5    2    3 1
     6    2    4 1
     7    2   27 1
     8    3   28 1
     9    3   29 1
    10    3   30 1
    11    4   16 1
    12    4    5 1
    13    5   10 ar
    14    5    6 ar
    15    6    7 ar
    16    6   15 1
    17    7    8 ar
    18    7   31 1
    19    8    9 ar
    20    8   32 1
    21    9   10 ar
    22    9   33 1
    23   10   11 1
    24   11   12 1
    25   11   13 1
    26   11   14 1
    27   15   16 2
    28   15   17 1
    29   17   22 ar
    30   17   18 ar
    31   18   19 ar
    32   18   34 1
    33   19   20 ar
    34   19   35 1
    35   20   21 ar
    36   20   23 1
    37   21   22 ar
    38   21   36 1
    39   22   37 1
    40   23   38 1
@<TRIPOS>MOLECULE
CHEMBL30950
   67    71     0     0     0
SMALL
USER_CHARGES

@<TRIPOS>ATOM
      1 C1          0.7761    1.6395    0.1368 C.3       1 <0>        -0.1320
      2 C2          0.6900    0.1353    0.1049 C.ar      1 <0>         0.0340
      3 C3          0.6729   -0.5249   -1.0910 C.ar      1 <0>        -0.1895
      4 C4          0.5934   -1.9146   -1.1244 C.ar      1 <0>         0.1888
      5 C5          0.5276   -2.6463    0.0529 C.ar      1 <0>        -0.1971
      6 C6          0.5415   -1.9924    1.2740 C.ar      1 <0>         0.1932
      7 C7          0.6331   -0.5891    1.2987 C.ar      1 <0>        -0.2618
      8 C8          0.6670    0.1003    2.5974 C.2       1 <0>         0.4081
      9 O1          0.9559    1.2752    2.6889 O.2       1 <0>        -0.4241
     10 C9          0.3210   -0.7343    3.8177 C.3       1 <0>        -0.1163
     11 H1          0.7148   -0.2591    4.7162 H         1 <0>         0.1240
     12 C10         0.9733   -2.1112    3.6255 C.3       1 <0>         0.1513
     13 H2          2.0550   -1.9950    3.5574 H         1 <0>         0.0962
     14 O2          0.4701   -2.7032    2.4234 O.3       1 <0>        -0.2986
     15 C11         0.6354   -2.9958    4.7979 C.ar      1 <0>        -0.1051
     16 C12        -0.5482   -3.7105    4.8046 C.ar      1 <0>        -0.0393
     17 C13        -0.8605   -4.5217    5.8783 C.ar      1 <0>        -0.1420
     18 C14         0.0149   -4.6193    6.9502 C.ar      1 <0>         0.1230
     19 C15         1.2021   -3.9015    6.9408 C.ar      1 <0>        -0.2024
     20 C16         1.5121   -3.0957    5.8623 C.ar      1 <0>        -0.0603
     21 O3         -0.2903   -5.4163    8.0078 O.3       1 <0>        -0.3275
     22 C17         0.6577   -5.4681    9.0758 C.3       1 <0>         0.0251
     23 C18         0.1449   -6.4094   10.1676 C.3       1 <0>        -0.0011
     24 N1          0.0475   -7.7737    9.6318 N.4       1 <0>        -0.3842
     25 C19        -0.5893   -8.6444   10.6272 C.3       1 <0>        -0.0070
     26 C20        -0.7668  -10.0478   10.0437 C.3       1 <0>        -0.1467
     27 C21         0.6050  -10.6162    9.6692 C.3       1 <0>        -0.1391
     28 C22         1.2913   -9.6621    8.6875 C.3       1 <0>        -0.1454
     29 C23         1.3925   -8.2729    9.3212 C.3       1 <0>        -0.0131
     30 C24        -1.1743   -0.8841    3.9300 C.ar      1 <0>        -0.0884
     31 C25        -1.8856   -1.4904    2.9110 C.ar      1 <0>        -0.0940
     32 C26        -3.2564   -1.6286    3.0113 C.ar      1 <0>        -0.1434
     33 C27        -3.9193   -1.1587    4.1358 C.ar      1 <0>         0.1156
     34 C28        -3.2033   -0.5511    5.1570 C.ar      1 <0>        -0.1440
     35 C29        -1.8319   -0.4200    5.0542 C.ar      1 <0>        -0.0832
     36 O4         -5.2679   -1.2930    4.2366 O.3       1 <0>        -0.4965
     37 O5          0.5796   -2.5589   -2.3182 O.3       1 <0>        -0.4917
     38 H3          1.8227    1.9432    0.1576 H         1 <0>         0.0850
     39 H4          0.2963    2.0498   -0.7517 H         1 <0>         0.0723
     40 H5          0.2715    2.0135    1.0277 H         1 <0>         0.0910
     41 H6          0.7209    0.0333   -2.0143 H         1 <0>         0.1418
     42 H7          0.4654   -3.7239    0.0171 H         1 <0>         0.1466
     43 H8         -1.2293   -3.6342    3.9699 H         1 <0>         0.1411
     44 H9         -1.7854   -5.0792    5.8834 H         1 <0>         0.1343
     45 H10         1.8851   -3.9758    7.7740 H         1 <0>         0.1312
     46 H11         2.4382   -2.5402    5.8526 H         1 <0>         0.1346
     47 H12         1.6115   -5.8359    8.6976 H         1 <0>         0.0870
     48 H13         0.7922   -4.4693    9.4910 H         1 <0>         0.1100
     49 H14         0.8358   -6.3986   11.0106 H         1 <0>         0.1492
     50 H15        -0.8390   -6.0785   10.5000 H         1 <0>         0.1426
     51 H16         0.0381   -8.6980   11.5169 H         1 <0>         0.1292
     52 H17        -1.5641   -8.2369   10.8951 H         1 <0>         0.1310
     53 H18        -1.2382  -10.6932   10.7849 H         1 <0>         0.1132
     54 H19        -1.3943   -9.9955    9.1540 H         1 <0>         0.0880
     55 H20         1.2153  -10.7167   10.5668 H         1 <0>         0.0821
     56 H21         0.4796  -11.5926    9.2012 H         1 <0>         0.0948
     57 H22         2.2909  -10.0317    8.4592 H         1 <0>         0.1123
     58 H23         0.7065   -9.6017    7.7696 H         1 <0>         0.0880
     59 H24         1.8808   -7.5912    8.6249 H         1 <0>         0.1273
     60 H25         1.9776   -8.3344   10.2387 H         1 <0>         0.1302
     61 H26        -1.3690   -1.8561    2.0359 H         1 <0>         0.1360
     62 H27        -3.8117   -2.1016    2.2149 H         1 <0>         0.1323
     63 H28        -3.7171   -0.1845    6.0333 H         1 <0>         0.1315
     64 H29        -1.2735    0.0489    5.8508 H         1 <0>         0.1275
     65 H30        -5.5508   -2.1166    4.6570 H         1 <0>         0.3918
     66 H31         1.4573   -2.7966   -2.6470 H         1 <0>         0.4031
     67 H32        -0.5094   -7.7646    8.7905 H         1 <0>         0.4294
@<TRIPOS>BOND
     1    1    2 1
     2    1   38 1
     3    1   39 1
     4    1   40 1
     5    2    7 ar
     6    2    3 ar
     7    3    4 ar
     8    3   41 1
     9    4    5 ar
    10    4   37 1
    11    5    6 ar
    12    5   42 1
    13    6   14 1
    14    6    7 ar
    15    7    8 1
    16    8    9 2
    17    8   10 1
    18   10   11 1
    19   10   12 1
    20   10   30 1
    21   12   13 1
    22   12   14 1
    23   12   15 1
    24   15   20 ar
    25   15   16 ar
    26   16   17 ar
    27   16   43 1
    28   17   18 ar
    29   17   44 1
    30   18   19 ar
    31   18   21 1
    32   19   20 ar
    33   19   45 1
    34   20   46 1
    35   21   22 1
    36   22   23 1
    37   22   47 1
    38   22   48 1
    39   23   24 1
    40   23   49 1
    41   23   50 1
    42   24   29 1
    43   24   25 1
    44   24   67 1
    45   25   26 1
    46   25   51 1
    47   25   52 1
    48   26   27 1
    49   26   53 1
    50   26   54 1
    51   27   28 1
    52   27   55 1
    53   27   56 1
    54   28   29 1
    55   28   57 1
    56   28   58 1
    57   29   59 1
    58   29   60 1
    59   30   35 ar
    60   30   31 ar
    61   31   32 ar
    62   31   61 1
    63   32   33 ar
    64   32   62 1
    65   33   34 ar
    66   33   36 1
    67   34   35 ar
    68   34   63 1
    69   35   64 1
    70   36   65 1
    71   37   66 1
@<TRIPOS>MOLECULE
CHEMBL83623
   59    63     0     0     0
SMALL
USER_CHARGES

@<TRIPOS>ATOM
      1 C1          0.2586    1.4348    0.1231 C.2       1 <0>        -0.1619
      2 C2          1.4071    2.2034    0.0930 C.2       1 <0>        -0.1326
      3 C3          2.6128    1.5840    0.0965 C.2       1 <0>        -0.1555
      4 S1          2.1433   -0.1378    0.1434 S.3       1 <0>         0.0876
      5 C4          0.3720    0.0844    0.1552 C.2       1 <0>        -0.1742
      6 C5          3.9917    2.1913    0.0677 C.3       1 <0>        -0.0185
      7 H1          3.9186    3.2785    0.0414 H         1 <0>         0.1476
      8 C6          4.7616    1.6871   -1.1644 C.3       1 <0>         0.1466
      9 H2          5.7954    2.0287   -1.1132 H         1 <0>         0.1003
     10 O1          4.7308    0.2681   -1.1815 O.3       1 <0>        -0.3038
     11 C7          5.2328   -0.4725   -0.1656 C.ar      1 <0>         0.1214
     12 C8          5.6216   -1.7792   -0.4513 C.ar      1 <0>        -0.1102
     13 C9          6.1268   -2.5953    0.5397 C.ar      1 <0>        -0.1065
     14 C10         6.2532   -2.1219    1.8375 C.ar      1 <0>         0.0994
     15 C11         5.8756   -0.8220    2.1323 C.ar      1 <0>        -0.0884
     16 C12         5.3736    0.0021    1.1336 C.ar      1 <0>        -0.1422
     17 S2          4.9320    1.6673    1.5359 S.3       1 <0>        -0.0827
     18 O2          6.7446   -2.9294    2.8150 O.3       1 <0>        -0.4915
     19 C13         4.1153    2.2221   -2.4162 C.ar      1 <0>        -0.1039
     20 C14         2.9768    1.6184   -2.9173 C.ar      1 <0>        -0.0385
     21 C15         2.3827    2.1066   -4.0649 C.ar      1 <0>        -0.1418
     22 C16         2.9291    3.2040   -4.7145 C.ar      1 <0>         0.1246
     23 C17         4.0712    3.8082   -4.2094 C.ar      1 <0>        -0.2033
     24 C18         4.6586    3.3193   -3.0586 C.ar      1 <0>        -0.0581
     25 O3          2.3468    3.6859   -5.8439 O.3       1 <0>        -0.3271
     26 C19         2.9639    4.8182   -6.4595 C.3       1 <0>         0.0250
     27 C20         2.1730    5.2141   -7.7080 C.3       1 <0>        -0.0011
     28 N1          0.8218    5.6382   -7.3177 N.4       1 <0>        -0.3843
     29 C21         0.0156    5.8681   -8.5226 C.3       1 <0>        -0.0070
     30 C22        -1.4156    6.2315   -8.1215 C.3       1 <0>        -0.1468
     31 C23        -1.3937    7.5039   -7.2696 C.3       1 <0>        -0.1390
     32 C24        -0.4902    7.2771   -6.0541 C.3       1 <0>        -0.1454
     33 C25         0.9068    6.8750   -6.5318 C.3       1 <0>        -0.0130
     34 H3         -0.7145    1.9033    0.1255 H         1 <0>         0.1340
     35 H4          1.3447    3.2812    0.0668 H         1 <0>         0.1298
     36 H5         -0.4071   -0.6631    0.1814 H         1 <0>         0.1869
     37 H6          5.5263   -2.1574   -1.4584 H         1 <0>         0.1410
     38 H7          6.4246   -3.6064    0.3044 H         1 <0>         0.1425
     39 H8          5.9715   -0.4487    3.1412 H         1 <0>         0.1394
     40 H9          7.7052   -2.8844    2.9164 H         1 <0>         0.3940
     41 H10         2.5518    0.7641   -2.4112 H         1 <0>         0.1404
     42 H11         1.4938    1.6343   -4.4563 H         1 <0>         0.1351
     43 H12         4.4985    4.6626   -4.7133 H         1 <0>         0.1317
     44 H13         5.5452    3.7921   -2.6625 H         1 <0>         0.1355
     45 H14         2.9758    5.6520   -5.7575 H         1 <0>         0.0869
     46 H15         3.9861    4.5662   -6.7417 H         1 <0>         0.1103
     47 H16         2.6799    6.0359   -8.2138 H         1 <0>         0.1493
     48 H17         2.1053    4.3595   -8.3813 H         1 <0>         0.1429
     49 H18         0.4495    6.6851   -9.0991 H         1 <0>         0.1293
     50 H19         0.0037    4.9627   -9.1294 H         1 <0>         0.1312
     51 H20        -2.0121    6.4035   -9.0174 H         1 <0>         0.1132
     52 H21        -1.8506    5.4150   -7.5451 H         1 <0>         0.0880
     53 H22        -1.0063    8.3327   -7.8622 H         1 <0>         0.0822
     54 H23        -2.4047    7.7354   -6.9342 H         1 <0>         0.0948
     55 H24        -0.4253    8.1966   -5.4723 H         1 <0>         0.1122
     56 H25        -0.9060    6.4823   -5.4348 H         1 <0>         0.0878
     57 H26         1.5527    6.7129   -5.6688 H         1 <0>         0.1271
     58 H27         1.3216    7.6705   -7.1507 H         1 <0>         0.1303
     59 H28         0.3915    4.9156   -6.7603 H         1 <0>         0.4294
@<TRIPOS>BOND
     1    1    5 2
     2    1    2 1
     3    1   34 1
     4    2    3 2
     5    2   35 1
     6    3    4 1
     7    3    6 1
     8    4    5 1
     9    5   36 1
    10    6    7 1
    11    6   17 1
    12    6    8 1
    13    8    9 1
    14    8   10 1
    15    8   19 1
    16   10   11 1
    17   11   16 ar
    18   11   12 ar
    19   12   13 ar
    20   12   37 1
    21   13   14 ar
    22   13   38 1
    23   14   15 ar
    24   14   18 1
    25   15   16 ar
    26   15   39 1
    27   16   17 1
    28   18   40 1
    29   19   24 ar
    30   19   20 ar
    31   20   21 ar
    32   20   41 1
    33   21   22 ar
    34   21   42 1
    35   22   23 ar
    36   22   25 1
    37   23   24 ar
    38   23   43 1
    39   24   44 1
    40   25   26 1
    41   26   27 1
    42   26   45 1
    43   26   46 1
    44   27   28 1
    45   27   47 1
    46   27   48 1
    47   28   33 1
    48   28   29 1
    49   28   59 1
    50   29   30 1
    51   29   49 1
    52   29   50 1
    53   30   31 1
    54   30   51 1
    55   30   52 1
    56   31   32 1
    57   31   53 1
    58   31   54 1
    59   32   33 1
    60   32   55 1
    61   32   56 1
    62   33   57 1
    63   33   58 1
@<TRIPOS>MOLECULE
CHEMBL240230
   85    89     0     0     0
SMALL
USER_CHARGES

@<TRIPOS>ATOM
      1 C1         -0.0187    1.5258    0.0104 C.3       1 <0>        -0.1655
      2 C2          0.0021   -0.0041    0.0020 C.3       1 <0>         0.1424
      3 H1          0.5123   -0.3556   -0.8948 H         1 <0>         0.0890
      4 C3         -1.4333   -0.5336    0.0129 C.3       1 <0>        -0.1222
      5 C4         -1.4157   -2.0577   -0.1212 C.3       1 <0>        -0.0781
      6 C5         -2.8295   -2.5793   -0.1105 C.ar      1 <0>        -0.0926
      7 C6         -3.4314   -2.9172    1.0875 C.ar      1 <0>        -0.1007
      8 C7         -4.7271   -3.3960    1.1000 C.ar      1 <0>        -0.1427
      9 C8         -5.4247   -3.5373   -0.0909 C.ar      1 <0>         0.1013
     10 C9         -4.8186   -3.1971   -1.2916 C.ar      1 <0>        -0.1425
     11 C10        -3.5245   -2.7138   -1.2982 C.ar      1 <0>        -0.1007
     12 O1         -6.6993   -4.0085   -0.0813 O.3       1 <0>        -0.5007
     13 N1          0.7106   -0.4894    1.1889 N.am      1 <0>        -0.7291
     14 C11         2.0538   -0.5998    1.1737 C.2       1 <0>         0.5131
     15 O2          2.6758   -0.2974    0.1774 O.2       1 <0>        -0.5245
     16 C12         2.7826   -1.0990    2.3946 C.3       1 <0>        -0.0695
     17 C13         4.2638   -1.1281    2.1185 C.2       1 <0>        -0.1410
     18 C14         5.0227   -2.2455    1.5590 C.ar      1 <0>        -0.0477
     19 C15         4.6771   -3.5319    1.1332 C.ar      1 <0>        -0.1031
     20 C16         5.6542   -4.3722    0.6397 C.ar      1 <0>         0.0966
     21 C17         6.9773   -3.9434    0.5656 C.ar      1 <0>        -0.1801
     22 C18         7.3297   -2.6790    0.9823 C.ar      1 <0>        -0.0868
     23 C19         6.3607   -1.8157    1.4825 C.ar      1 <0>         0.0784
     24 N2          6.4067   -0.5238    1.9641 N.pl3     1 <0>        -0.5858
     25 H2          7.2073    0.0202    2.0265 H         1 <0>         0.4177
     26 C20         5.1452   -0.1207    2.3362 C.2       1 <0>         0.1542
     27 C21         4.8033    1.2064    2.8922 C.ar      1 <0>        -0.0453
     28 C22         3.6787    1.8911    2.4299 C.ar      1 <0>        -0.0926
     29 C23         3.3649    3.1286    2.9530 C.ar      1 <0>        -0.1170
     30 C24         4.1625    3.6907    3.9339 C.ar      1 <0>        -0.1060
     31 C25         5.2791    3.0172    4.3962 C.ar      1 <0>        -0.1174
     32 C26         5.6006    1.7766    3.8855 C.ar      1 <0>        -0.1042
     33 O3          5.3240   -5.6244    0.2246 O.3       1 <0>        -0.3158
     34 C27         6.3836   -6.4427   -0.2752 C.3       1 <0>         0.0609
     35 C28         5.8236   -7.8046   -0.6907 C.3       1 <0>        -0.1178
     36 C29         6.9580   -8.6807   -1.2259 C.3       1 <0>        -0.1463
     37 C30         6.3981  -10.0425   -1.6414 C.3       1 <0>        -0.0087
     38 N3          7.4873  -10.8837   -2.1553 N.4       1 <0>        -0.3830
     39 C31         8.0280  -10.2861   -3.3820 C.3       1 <0>        -0.0128
     40 C32         9.2156  -11.1144   -3.8769 C.3       1 <0>        -0.1460
     41 C33         8.7487  -12.5439   -4.1664 C.3       1 <0>        -0.1398
     42 C34         8.1190  -13.1311   -2.9000 C.3       1 <0>        -0.1465
     43 C35         6.9720  -12.2280   -2.4413 C.3       1 <0>        -0.0068
     44 H3          1.0039    1.9031    0.0027 H         1 <0>         0.0607
     45 H4         -0.5459    1.8868   -0.8726 H         1 <0>         0.0664
     46 H5         -0.5289    1.8773    0.9072 H         1 <0>         0.0583
     47 H6         -1.9156   -0.2570    0.9504 H         1 <0>         0.0719
     48 H7         -1.9862   -0.1019   -0.8214 H         1 <0>         0.0816
     49 H8         -0.9334   -2.3344   -1.0587 H         1 <0>         0.0733
     50 H9         -0.8628   -2.4894    0.7131 H         1 <0>         0.0734
     51 H10        -2.8879   -2.8071    2.0143 H         1 <0>         0.1255
     52 H11        -5.1966   -3.6605    2.0359 H         1 <0>         0.1287
     53 H12        -5.3596   -3.3061   -2.2200 H         1 <0>         0.1286
     54 H13        -3.0538   -2.4447   -2.2322 H         1 <0>         0.1259
     55 H14        -7.3727   -3.3195    0.0019 H         1 <0>         0.3925
     56 H15         0.2131   -0.7312    1.9857 H         1 <0>         0.3995
     57 H16         2.5826   -0.4337    3.2345 H         1 <0>         0.1018
     58 H17         2.4385   -2.1044    2.6374 H         1 <0>         0.1018
     59 H18         3.6516   -3.8658    1.1905 H         1 <0>         0.1283
     60 H19         7.7343   -4.6090    0.1778 H         1 <0>         0.1272
     61 H20         8.3590   -2.3577    0.9207 H         1 <0>         0.1255
     62 H21         3.0555    1.4535    1.6640 H         1 <0>         0.1311
     63 H22         2.4950    3.6598    2.5959 H         1 <0>         0.1277
     64 H23         3.9125    4.6597    4.3402 H         1 <0>         0.1273
     65 H24         5.8978    3.4616    5.1618 H         1 <0>         0.1282
     66 H25         6.4700    1.2498    4.2503 H         1 <0>         0.1222
     67 H26         6.8400   -5.9587   -1.1387 H         1 <0>         0.0625
     68 H27         7.1342   -6.5806    0.5030 H         1 <0>         0.0630
     69 H28         5.3672   -8.2885    0.1727 H         1 <0>         0.0863
     70 H29         5.0730   -7.6667   -1.4689 H         1 <0>         0.0859
     71 H30         7.4145   -8.1967   -2.0894 H         1 <0>         0.0902
     72 H31         7.7087   -8.8186   -0.4477 H         1 <0>         0.0904
     73 H32         5.9417  -10.5265   -0.7780 H         1 <0>         0.1334
     74 H33         5.6474   -9.9047   -2.4196 H         1 <0>         0.1316
     75 H34         7.2535  -10.2681   -4.1488 H         1 <0>         0.1288
     76 H35         8.3569   -9.2677   -3.1751 H         1 <0>         0.1310
     77 H36         9.6145  -10.6701   -4.7888 H         1 <0>         0.1117
     78 H37         9.9909  -11.1329   -3.1109 H         1 <0>         0.0872
     79 H38         8.0103  -12.5308   -4.9682 H         1 <0>         0.0818
     80 H39         9.6020  -13.1526   -4.4652 H         1 <0>         0.0941
     81 H40         7.7341  -14.1283   -3.1136 H         1 <0>         0.1122
     82 H41         8.8715  -13.1914   -2.1137 H         1 <0>         0.0874
     83 H42         6.5214  -12.6434   -1.5399 H         1 <0>         0.1303
     84 H43         6.2201  -12.1686   -3.2281 H         1 <0>         0.1284
     85 H44         8.2187  -10.9452   -1.4629 H         1 <0>         0.4221
@<TRIPOS>BOND
     1    1    2 1
     2    1   44 1
     3    1   45 1
     4    1   46 1
     5    2    3 1
     6    2    4 1
     7    2   13 1
     8    4    5 1
     9    4   47 1
    10    4   48 1
    11    5    6 1
    12    5   49 1
    13    5   50 1
    14    6   11 ar
    15    6    7 ar
    16    7    8 ar
    17    7   51 1
    18    8    9 ar
    19    8   52 1
    20    9   10 ar
    21    9   12 1
    22   10   11 ar
    23   10   53 1
    24   11   54 1
    25   12   55 1
    26   13   14 am
    27   13   56 1
    28   14   15 2
    29   14   16 1
    30   16   17 1
    31   16   57 1
    32   16   58 1
    33   17   26 2
    34   17   18 1
    35   18   23 ar
    36   18   19 ar
    37   19   20 ar
    38   19   59 1
    39   20   21 ar
    40   20   33 1
    41   21   22 ar
    42   21   60 1
    43   22   23 ar
    44   22   61 1
    45   23   24 1
    46   24   25 1
    47   24   26 1
    48   26   27 1
    49   27   32 ar
    50   27   28 ar
    51   28   29 ar
    52   28   62 1
    53   29   30 ar
    54   29   63 1
    55   30   31 ar
    56   30   64 1
    57   31   32 ar
    58   31   65 1
    59   32   66 1
    60   33   34 1
    61   34   35 1
    62   34   67 1
    63   34   68 1
    64   35   36 1
    65   35   69 1
    66   35   70 1
    67   36   37 1
    68   36   71 1
    69   36   72 1
    70   37   38 1
    71   37   73 1
    72   37   74 1
    73   38   43 1
    74   38   39 1
    75   38   85 1
    76   39   40 1
    77   39   75 1
    78   39   76 1
    79   40   41 1
    80   40   77 1
    81   40   78 1
    82   41   42 1
    83   41   79 1
    84   41   80 1
    85   42   43 1
    86   42   81 1
    87   42   82 1
    88   43   83 1
    89   43   84 1
@<TRIPOS>MOLECULE
CHEMBL385680
   38    41     0     0     0
SMALL
USER_CHARGES

@<TRIPOS>ATOM
      1 C1         -0.3411    1.5349    0.3115 C.3       1 <0>        -0.1563
      2 C2         -0.3002    0.0055    0.3018 C.3       1 <0>        -0.1053
      3 C3         -1.6994   -0.5402    0.0094 C.3       1 <0>        -0.0409
      4 C4         -2.2189   -0.0575   -1.3477 C.3       1 <0>        -0.1102
      5 C5         -1.3291   -0.6494   -2.4458 C.3       1 <0>        -0.1613
      6 C6         -1.2982   -2.1506   -2.3501 C.2       1 <0>         0.4003
      7 O1         -1.1001   -2.8092   -3.3512 O.2       1 <0>        -0.4427
      8 C7         -1.4953   -2.8057   -1.1159 C.2       1 <0>        -0.3055
      9 C8         -1.7177   -2.0606   -0.0123 C.2       1 <0>         0.1146
     10 C9         -2.0532   -2.4901    1.3484 C.ar      1 <0>        -0.1585
     11 C10        -1.8360   -3.7140    2.0134 C.ar      1 <0>        -0.0061
     12 C11        -2.2954   -3.9127    3.2773 C.ar      1 <0>        -0.1465
     13 C12        -2.9848   -2.8978    3.9433 C.ar      1 <0>         0.1821
     14 C13        -3.1793   -1.6537    3.3090 C.ar      1 <0>        -0.1937
     15 C14        -2.6974   -1.4477    2.0164 C.ar      1 <0>         0.0456
     16 C15        -2.6860   -0.2098    1.1429 C.3       1 <0>        -0.0858
     17 C16        -3.9101   -0.8184    4.2616 C.2       1 <0>         0.2912
     18 N1         -4.1143   -1.5291    5.3347 N.2       1 <0>        -0.2564
     19 N2         -3.5655   -2.8056    5.1781 N.pl3     1 <0>        -0.4793
     20 H1         -3.5927   -3.5139    5.8403 H         1 <0>         0.4548
     21 F1         -4.3030    0.4590    4.0644 F         1 <0>        -0.0742
     22 C17        -1.4592   -4.3099   -1.0315 C.3       1 <0>         0.5166
     23 F2         -2.5023   -4.7562   -0.2129 F         1 <0>        -0.1767
     24 F3         -1.6069   -4.8525   -2.3125 F         1 <0>        -0.1590
     25 F4         -0.2350   -4.7174   -0.4907 F         1 <0>        -0.1775
     26 H2          0.6556    1.9237    0.5199 H         1 <0>         0.0640
     27 H3         -0.6758    1.8956   -0.6611 H         1 <0>         0.0638
     28 H4         -1.0323    1.8751    1.0827 H         1 <0>         0.0612
     29 H5          0.3910   -0.3346   -0.4693 H         1 <0>         0.0761
     30 H6          0.0344   -0.3552    1.2745 H         1 <0>         0.0747
     31 H7         -3.2462   -0.3941   -1.4876 H         1 <0>         0.0806
     32 H8         -2.1778    1.0309   -1.3898 H         1 <0>         0.0966
     33 H9         -1.7205   -0.3594   -3.4209 H         1 <0>         0.1065
     34 H10        -0.3164   -0.2614   -2.3358 H         1 <0>         0.1088
     35 H11        -1.2976   -4.5046    1.5118 H         1 <0>         0.1398
     36 H12        -2.1266   -4.8598    3.7681 H         1 <0>         0.1450
     37 H13        -2.3368    0.6525    1.7109 H         1 <0>         0.1066
     38 H14        -3.6803   -0.0216    0.7380 H         1 <0>         0.1070
@<TRIPOS>BOND
     1    1    2 1
     2    1   26 1
     3    1   27 1
     4    1   28 1
     5    2    3 1
     6    2   29 1
     7    2   30 1
     8    3    9 1
     9    3   16 1
    10    3    4 1
    11    4    5 1
    12    4   31 1
    13    4   32 1
    14    5    6 1
    15    5   33 1
    16    5   34 1
    17    6    7 2
    18    6    8 1
    19    8    9 2
    20    8   22 1
    21    9   10 1
    22   10   15 ar
    23   10   11 ar
    24   11   12 ar
    25   11   35 1
    26   12   13 ar
    27   12   36 1
    28   13   19 1
    29   13   14 ar
    30   14   15 ar
    31   14   17 1
    32   15   16 1
    33   16   37 1
    34   16   38 1
    35   17   18 2
    36   17   21 1
    37   18   19 1
    38   19   20 1
    39   22   23 1
    40   22   24 1
    41   22   25 1
@<TRIPOS>MOLECULE
CHEMBL385680__1
   38    41     0     0     0
SMALL
USER_CHARGES

@<TRIPOS>ATOM
      1 C1         -0.1194    1.5424   -0.4247 C.3       1 <0>        -0.1557
      2 C2         -0.1079    0.0125   -0.4150 C.3       1 <0>        -0.1053
      3 C3          0.8554   -0.4972   -1.4888 C.3       1 <0>        -0.0408
      4 C4          2.2828    0.0031   -1.2489 C.3       1 <0>        -0.1099
      5 C5          2.7984   -0.6100    0.0573 C.3       1 <0>        -0.1612
      6 C6          2.7257   -2.1118    0.0026 C.2       1 <0>         0.4002
      7 O1          3.5066   -2.7722    0.6586 O.2       1 <0>        -0.4451
      8 C7          1.7668   -2.7647   -0.7964 C.2       1 <0>        -0.3107
      9 C8          0.9078   -2.0163   -1.5252 C.2       1 <0>         0.1153
     10 C9         -0.0967   -2.4429   -2.5015 C.ar      1 <0>        -0.1519
     11 C10        -0.7679   -3.6841   -2.6486 C.ar      1 <0>        -0.0270
     12 C11        -1.6322   -3.9141   -3.6575 C.ar      1 <0>        -0.1079
     13 C12        -1.8966   -2.9009   -4.6090 C.ar      1 <0>         0.1510
     14 C13        -1.2343   -1.5949   -4.4553 C.ar      1 <0>        -0.2157
     15 C14        -0.3623   -1.3934   -3.3748 C.ar      1 <0>         0.0494
     16 C15         0.3645   -0.1494   -2.9051 C.3       1 <0>        -0.0867
     17 C16        -1.6729   -0.8082   -5.5149 C.2       1 <0>         0.3077
     18 N1         -2.5164   -1.5463   -6.2483 N.pl3     1 <0>        -0.4302
     19 N2         -2.6477   -2.8220   -5.6891 N.2       1 <0>        -0.2697
     20 H1         -2.9697   -1.2410   -7.0496 H         1 <0>         0.4523
     21 F1         -1.3135    0.4708   -5.7600 F         1 <0>        -0.0798
     22 C17         1.6994   -4.2696   -0.8383 C.3       1 <0>         0.5172
     23 F2          1.5136   -4.6915   -2.1592 F         1 <0>        -0.1755
     24 F3          2.8931   -4.8040   -0.3415 F         1 <0>        -0.1603
     25 F4          0.6287   -4.7105   -0.0530 F         1 <0>        -0.1776
     26 H2          0.8842    1.9146   -0.2188 H         1 <0>         0.0635
     27 H3         -0.4448    1.8971   -1.4027 H         1 <0>         0.0599
     28 H4         -0.8057    1.9055    0.3403 H         1 <0>         0.0637
     29 H5          0.2175   -0.3422    0.5630 H         1 <0>         0.0764
     30 H6         -1.1115   -0.3597   -0.6210 H         1 <0>         0.0752
     31 H7          2.9228   -0.3048   -2.0758 H         1 <0>         0.0800
     32 H8          2.2813    1.0901   -1.1678 H         1 <0>         0.0953
     33 H9          3.8334   -0.3058    0.2131 H         1 <0>         0.1056
     34 H10         2.1901   -0.2509    0.8875 H         1 <0>         0.1081
     35 H11        -0.5805   -4.4688   -1.9306 H         1 <0>         0.1354
     36 H12        -2.1230   -4.8727   -3.7396 H         1 <0>         0.1456
     37 H13        -0.3180    0.7000   -2.8728 H         1 <0>         0.1039
     38 H14         1.2101    0.0661   -3.5582 H         1 <0>         0.1051
@<TRIPOS>BOND
     1    1    2 1
     2    1   26 1
     3    1   27 1
     4    1   28 1
     5    2    3 1
     6    2   29 1
     7    2   30 1
     8    3    9 1
     9    3   16 1
    10    3    4 1
    11    4    5 1
    12    4   31 1
    13    4   32 1
    14    5    6 1
    15    5   33 1
    16    5   34 1
    17    6    7 2
    18    6    8 1
    19    8    9 2
    20    8   22 1
    21    9   10 1
    22   10   15 ar
    23   10   11 ar
    24   11   12 ar
    25   11   35 1
    26   12   13 ar
    27   12   36 1
    28   13   14 ar
    29   13   19 2
    30   14   15 ar
    31   14   17 2
    32   15   16 1
    33   16   37 1
    34   16   38 1
    35   17   21 1
    36   17   18 1
    37   18   20 1
    38   18   19 1
    39   22   23 1
    40   22   24 1
    41   22   25 1
@<TRIPOS>MOLECULE
CHEMBL93207
   45    48     0     0     0
SMALL
USER_CHARGES

@<TRIPOS>ATOM
      1 C1         -0.0205    1.3726   -0.0766 C.ar      1 <0>        -0.0962
      2 C2          0.1484    0.2409   -0.8544 C.ar      1 <0>        -0.1235
      3 C3          1.3528   -0.4319   -0.8464 C.ar      1 <0>        -0.0956
      4 C4          2.4022    0.0316   -0.0512 C.ar      1 <0>        -0.1306
      5 C5          2.2251    1.1739    0.7311 C.ar      1 <0>        -0.0666
      6 C6          1.0156    1.8372    0.7139 C.ar      1 <0>        -0.1216
      7 C7          3.6955   -0.6847   -0.0372 C.2       1 <0>         0.5681
      8 O1          4.7363   -0.0612   -0.1108 O.2       1 <0>        -0.5263
      9 N1          3.7204   -2.0289    0.0571 N.am      1 <0>        -0.6084
     10 C8          2.4828   -2.8162    0.0622 C.3       1 <0>         0.1388
     11 C9          2.5577   -3.8735    1.1351 C.ar      1 <0>        -0.0783
     12 C10         1.3918   -4.5552    1.4532 C.ar      1 <0>        -0.1399
     13 C11         1.3989   -5.5442    2.4220 C.ar      1 <0>         0.1104
     14 C12         2.5826   -5.8539    3.0766 C.ar      1 <0>        -0.1412
     15 C13         3.7377   -5.1717    2.7611 C.ar      1 <0>        -0.0893
     16 C14         3.7300   -4.1747    1.7922 C.ar      1 <0>        -0.0721
     17 C15         5.0257   -3.4558    1.5218 C.3       1 <0>        -0.0194
     18 C16         4.9911   -2.7663    0.1529 C.3       1 <0>         0.1208
     19 C17         6.1582   -4.4498    1.5452 C.ar      1 <0>        -0.0867
     20 C18         6.1689   -5.5050    0.6519 C.ar      1 <0>        -0.0893
     21 C19         7.2057   -6.4177    0.6716 C.ar      1 <0>        -0.1422
     22 C20         8.2369   -6.2746    1.5885 C.ar      1 <0>         0.1067
     23 C21         8.2241   -5.2146    2.4835 C.ar      1 <0>        -0.1420
     24 C22         7.1876   -4.3017    2.4563 C.ar      1 <0>        -0.0943
     25 O2          9.2578   -7.1714    1.6103 O.3       1 <0>        -0.5002
     26 O3          0.2535   -6.2075    2.7303 O.3       1 <0>        -0.4978
     27 H1         -0.9639    1.8982   -0.0900 H         1 <0>         0.1288
     28 H2         -0.6644   -0.1168   -1.4690 H         1 <0>         0.1308
     29 H3          1.4833   -1.3153   -1.4537 H         1 <0>         0.1302
     30 H4          3.0330    1.5374    1.3488 H         1 <0>         0.1309
     31 H5          0.8773    2.7212    1.3187 H         1 <0>         0.1313
     32 H6          1.6357   -2.1591    0.2591 H         1 <0>         0.1088
     33 H7          2.3526   -3.2936   -0.9090 H         1 <0>         0.0870
     34 H8          0.4723   -4.3127    0.9413 H         1 <0>         0.1316
     35 H9          2.5985   -6.6266    3.8311 H         1 <0>         0.1302
     36 H10         4.6581   -5.4141    3.2714 H         1 <0>         0.1277
     37 H11         5.1896   -2.7083    2.2980 H         1 <0>         0.0968
     38 H12         5.0451   -3.5125   -0.6398 H         1 <0>         0.0804
     39 H13         5.8274   -2.0728    0.0652 H         1 <0>         0.1042
     40 H14         5.3658   -5.6160   -0.0617 H         1 <0>         0.1251
     41 H15         7.2132   -7.2423   -0.0259 H         1 <0>         0.1294
     42 H16         9.0257   -5.1010    3.1983 H         1 <0>         0.1304
     43 H17         7.1794   -3.4739    3.1498 H         1 <0>         0.1285
     44 H18        10.0000   -6.9364    1.0368 H         1 <0>         0.3924
     45 H19         0.1055   -7.0035    2.2015 H         1 <0>         0.3922
@<TRIPOS>BOND
     1    1    6 ar
     2    1    2 ar
     3    1   27 1
     4    2    3 ar
     5    2   28 1
     6    3    4 ar
     7    3   29 1
     8    4    5 ar
     9    4    7 1
    10    5    6 ar
    11    5   30 1
    12    6   31 1
    13    7    8 2
    14    7    9 am
    15    9   18 1
    16    9   10 1
    17   10   11 1
    18   10   32 1
    19   10   33 1
    20   11   16 ar
    21   11   12 ar
    22   12   13 ar
    23   12   34 1
    24   13   14 ar
    25   13   26 1
    26   14   15 ar
    27   14   35 1
    28   15   16 ar
    29   15   36 1
    30   16   17 1
    31   17   18 1
    32   17   19 1
    33   17   37 1
    34   18   38 1
    35   18   39 1
    36   19   24 ar
    37   19   20 ar
    38   20   21 ar
    39   20   40 1
    40   21   22 ar
    41   21   41 1
    42   22   23 ar
    43   22   25 1
    44   23   24 ar
    45   23   42 1
    46   24   43 1
    47   25   44 1
    48   26   45 1
@<TRIPOS>MOLECULE
CHEMBL93207__1
   45    48     0     0     0
SMALL
USER_CHARGES

@<TRIPOS>ATOM
      1 C1         -0.0130    1.3835    0.0752 C.ar      1 <0>        -0.0938
      2 C2          1.0245    1.8714   -0.6994 C.ar      1 <0>        -0.1244
      3 C3          2.2316    1.2046   -0.7402 C.ar      1 <0>        -0.0625
      4 C4          2.4048    0.0354    0.0021 C.ar      1 <0>        -0.1343
      5 C5          1.3541   -0.4514    0.7814 C.ar      1 <0>        -0.0958
      6 C6          0.1522    0.2250    0.8133 C.ar      1 <0>        -0.1260
      7 C7          3.6955   -0.6847   -0.0372 C.2       1 <0>         0.5674
      8 O1          4.7342   -0.0643   -0.1547 O.2       1 <0>        -0.5267
      9 N1          3.7204   -2.0289    0.0571 N.am      1 <0>        -0.6093
     10 C8          2.4828   -2.8162    0.0622 C.3       1 <0>         0.1400
     11 C9          2.6370   -4.0111   -0.8451 C.ar      1 <0>        -0.0791
     12 C10         1.4963   -4.7365   -1.1578 C.ar      1 <0>        -0.1395
     13 C11         1.5749   -5.8493   -1.9779 C.ar      1 <0>         0.1100
     14 C12         2.8052   -6.2398   -2.4872 C.ar      1 <0>        -0.1415
     15 C13         3.9354   -5.5147   -2.1772 C.ar      1 <0>        -0.0897
     16 C14         3.8561   -4.3936   -1.3589 C.ar      1 <0>        -0.0715
     17 C15         5.1301   -3.6371   -1.0881 C.3       1 <0>        -0.0194
     18 C16         4.9911   -2.7663    0.1529 C.3       1 <0>         0.1207
     19 C17         6.2554   -4.6185   -0.8840 C.ar      1 <0>        -0.0870
     20 C18         6.1840   -5.5476    0.1375 C.ar      1 <0>        -0.0890
     21 C19         7.2145   -6.4480    0.3270 C.ar      1 <0>        -0.1419
     22 C20         8.3213   -6.4197   -0.5089 C.ar      1 <0>         0.1069
     23 C21         8.3903   -5.4867   -1.5333 C.ar      1 <0>        -0.1423
     24 C22         7.3549   -4.5919   -1.7219 C.ar      1 <0>        -0.0942
     25 O2          9.3365   -7.3041   -0.3242 O.3       1 <0>        -0.4997
     26 O3          0.4540   -6.5551   -2.2818 O.3       1 <0>        -0.4981
     27 H1         -0.9544    1.9118    0.1072 H         1 <0>         0.1288
     28 H2          0.8890    2.7760   -1.2736 H         1 <0>         0.1313
     29 H3          3.0405    1.5863   -1.3455 H         1 <0>         0.1328
     30 H4          1.4817   -1.3558    1.3578 H         1 <0>         0.1329
     31 H5         -0.6616   -0.1506    1.4159 H         1 <0>         0.1308
     32 H6          2.2731   -3.1557    1.0766 H         1 <0>         0.0874
     33 H7          1.6577   -2.1973   -0.2902 H         1 <0>         0.1082
     34 H8          0.5403   -4.4308   -0.7590 H         1 <0>         0.1318
     35 H9          2.8768   -7.1091   -3.1240 H         1 <0>         0.1300
     36 H10         4.8922   -5.8206   -2.5737 H         1 <0>         0.1276
     37 H11         5.3595   -3.0030   -1.9445 H         1 <0>         0.0969
     38 H12         5.8226   -2.0633    0.2021 H         1 <0>         0.1037
     39 H13         4.9861   -3.3954    1.0431 H         1 <0>         0.0803
     40 H14         5.3221   -5.5693    0.7879 H         1 <0>         0.1253
     41 H15         7.1586   -7.1732    1.1254 H         1 <0>         0.1296
     42 H16         9.2510   -5.4627   -2.1853 H         1 <0>         0.1304
     43 H17         7.4061   -3.8683   -2.5220 H         1 <0>         0.1285
     44 H18         9.2329   -8.1301   -0.8163 H         1 <0>         0.3919
     45 H19        -0.0011   -6.2470   -3.0774 H         1 <0>         0.3925
@<TRIPOS>BOND
     1    1    6 ar
     2    1    2 ar
     3    1   27 1
     4    2    3 ar
     5    2   28 1
     6    3    4 ar
     7    3   29 1
     8    4    5 ar
     9    4    7 1
    10    5    6 ar
    11    5   30 1
    12    6   31 1
    13    7    8 2
    14    7    9 am
    15    9   18 1
    16    9   10 1
    17   10   11 1
    18   10   32 1
    19   10   33 1
    20   11   16 ar
    21   11   12 ar
    22   12   13 ar
    23   12   34 1
    24   13   14 ar
    25   13   26 1
    26   14   15 ar
    27   14   35 1
    28   15   16 ar
    29   15   36 1
    30   16   17 1
    31   17   18 1
    32   17   19 1
    33   17   37 1
    34   18   38 1
    35   18   39 1
    36   19   24 ar
    37   19   20 ar
    38   20   21 ar
    39   20   40 1
    40   21   22 ar
    41   21   41 1
    42   22   23 ar
    43   22   25 1
    44   23   24 ar
    45   23   42 1
    46   24   43 1
    47   25   44 1
    48   26   45 1
@<TRIPOS>MOLECULE
CHEMBL93266
   38    40     0     0     0
SMALL
USER_CHARGES

@<TRIPOS>ATOM
      1 C1         -0.0167    1.3784    0.0096 C.ar      1 <0>        -0.0924
      2 C2          1.1695    2.0865    0.0021 C.ar      1 <0>        -0.1419
      3 C3          2.3802    1.4093   -0.0131 C.ar      1 <0>         0.1093
      4 C4          2.3963    0.0221   -0.0206 C.ar      1 <0>        -0.1420
      5 C5          1.2074   -0.6814   -0.0130 C.ar      1 <0>        -0.0888
      6 C6          0.0021   -0.0041    0.0020 C.ar      1 <0>        -0.0898
      7 C7         -1.2934   -0.7740    0.0107 C.3       1 <0>        -0.0197
      8 C8         -1.3596   -1.6316    1.2734 C.3       1 <0>         0.1197
      9 N1         -2.4734   -2.5818    1.1171 N.am      1 <0>        -0.5878
     10 C9         -2.3618   -3.5787    0.0469 C.3       1 <0>         0.1333
     11 C10        -1.8646   -2.9168   -1.2138 C.ar      1 <0>        -0.0790
     12 C11        -1.3680   -1.6318   -1.2251 C.ar      1 <0>        -0.0740
     13 C12        -0.9131   -1.0822   -2.4178 C.ar      1 <0>        -0.0870
     14 C13        -0.9602   -1.8073   -3.5893 C.ar      1 <0>        -0.1382
     15 C14        -1.4671   -3.0985   -3.5801 C.ar      1 <0>         0.1135
     16 C15        -1.9171   -3.6482   -2.3912 C.ar      1 <0>        -0.1370
     17 O1         -1.5222   -3.8195   -4.7307 O.3       1 <0>        -0.4968
     18 C16        -3.5515   -2.5377    1.9247 C.2       1 <0>         0.4903
     19 O2         -3.6180   -1.7031    2.8022 O.2       1 <0>        -0.4704
     20 C17        -4.6742   -3.5253    1.7375 C.3       1 <0>         0.4515
     21 F1         -5.6725   -3.2820    2.6868 F         1 <0>        -0.1488
     22 F2         -5.2088   -3.3855    0.4522 F         1 <0>        -0.1635
     23 F3         -4.1835   -4.8254    1.8995 F         1 <0>        -0.1652
     24 O3          3.5484    2.1036   -0.0209 O.3       1 <0>        -0.4999
     25 H1         -0.9594    1.9052    0.0259 H         1 <0>         0.1294
     26 H2          1.1543    3.1664    0.0076 H         1 <0>         0.1312
     27 H3          3.3375   -0.5074   -0.0328 H         1 <0>         0.1302
     28 H4          1.2194   -1.7613   -0.0189 H         1 <0>         0.1259
     29 H5         -2.1274   -0.0722    0.0107 H         1 <0>         0.1003
     30 H6         -0.4243   -2.1771    1.3982 H         1 <0>         0.0920
     31 H7         -1.5357   -0.9966    2.1416 H         1 <0>         0.1095
     32 H8         -1.6612   -4.3575    0.3482 H         1 <0>         0.1015
     33 H9         -3.3397   -4.0232   -0.1383 H         1 <0>         0.1022
     34 H10        -0.5189   -0.0767   -2.4270 H         1 <0>         0.1295
     35 H11        -0.6042   -1.3714   -4.5111 H         1 <0>         0.1320
     36 H12        -2.3114   -4.6536   -2.3807 H         1 <0>         0.1341
     37 H13        -0.7290   -4.3447   -4.9041 H         1 <0>         0.3935
     38 H14         3.8951    2.3001    0.8601 H         1 <0>         0.3932
@<TRIPOS>BOND
     1    1    6 ar
     2    1    2 ar
     3    1   25 1
     4    2    3 ar
     5    2   26 1
     6    3    4 ar
     7    3   24 1
     8    4    5 ar
     9    4   27 1
    10    5    6 ar
    11    5   28 1
    12    6    7 1
    13    7   12 1
    14    7    8 1
    15    7   29 1
    16    8    9 1
    17    8   30 1
    18    8   31 1
    19    9   10 1
    20    9   18 am
    21   10   11 1
    22   10   32 1
    23   10   33 1
    24   11   16 ar
    25   11   12 ar
    26   12   13 ar
    27   13   14 ar
    28   13   34 1
    29   14   15 ar
    30   14   35 1
    31   15   16 ar
    32   15   17 1
    33   16   36 1
    34   17   37 1
    35   18   19 2
    36   18   20 1
    37   20   21 1
    38   20   22 1
    39   20   23 1
    40   24   38 1
@<TRIPOS>MOLECULE
CHEMBL93266__1
   38    40     0     0     0
SMALL
USER_CHARGES

@<TRIPOS>ATOM
      1 C1         -0.0167    1.3784    0.0096 C.ar      1 <0>        -0.0925
      2 C2          1.1695    2.0865    0.0021 C.ar      1 <0>        -0.1423
      3 C3          2.3802    1.4093   -0.0131 C.ar      1 <0>         0.1095
      4 C4          2.3963    0.0221   -0.0206 C.ar      1 <0>        -0.1416
      5 C5          1.2074   -0.6814   -0.0130 C.ar      1 <0>        -0.0883
      6 C6          0.0021   -0.0041    0.0020 C.ar      1 <0>        -0.0904
      7 C7         -1.2934   -0.7740    0.0107 C.3       1 <0>        -0.0193
      8 C8         -1.3847   -1.6180   -1.2595 C.3       1 <0>         0.1190
      9 N1         -2.4953   -2.5699   -1.0914 N.am      1 <0>        -0.5877
     10 C9         -2.3626   -3.5783   -0.0344 C.3       1 <0>         0.1330
     11 C10        -1.8404   -2.9299    1.2232 C.ar      1 <0>        -0.0784
     12 C11        -1.3436   -1.6450    1.2385 C.ar      1 <0>        -0.0738
     13 C12        -0.8651   -1.1082    2.4278 C.ar      1 <0>        -0.0873
     14 C13        -0.8892   -1.8458    3.5921 C.ar      1 <0>        -0.1388
     15 C14        -1.3963   -3.1369    3.5791 C.ar      1 <0>         0.1133
     16 C15        -1.8698   -3.6739    2.3935 C.ar      1 <0>        -0.1367
     17 O1         -1.4287   -3.8702    4.7228 O.3       1 <0>        -0.4974
     18 C16        -3.5891   -2.5173   -1.8771 C.2       1 <0>         0.4899
     19 O2         -3.6729   -1.6733   -2.7441 O.2       1 <0>        -0.4699
     20 C17        -4.7080   -3.5070   -1.6783 C.3       1 <0>         0.4518
     21 F1         -5.7249   -3.2536   -2.6050 F         1 <0>        -0.1487
     22 F2         -4.2207   -4.8052   -1.8639 F         1 <0>        -0.1649
     23 F3         -5.2171   -3.3810   -0.3813 F         1 <0>        -0.1644
     24 O3          3.5484    2.1036   -0.0209 O.3       1 <0>        -0.4995
     25 H1         -0.9594    1.9052    0.0259 H         1 <0>         0.1293
     26 H2          1.1543    3.1664    0.0076 H         1 <0>         0.1312
     27 H3          3.3375   -0.5074   -0.0328 H         1 <0>         0.1305
     28 H4          1.2194   -1.7613   -0.0189 H         1 <0>         0.1262
     29 H5         -2.1271   -0.0723    0.0347 H         1 <0>         0.1002
     30 H6         -1.5779   -0.9737   -2.1173 H         1 <0>         0.1100
     31 H7         -0.4520   -2.1620   -1.4087 H         1 <0>         0.0923
     32 H8         -3.3367   -4.0248    0.1652 H         1 <0>         0.1022
     33 H9         -1.6682   -4.3537   -0.3579 H         1 <0>         0.1019
     34 H10        -0.4701   -0.1031    2.4398 H         1 <0>         0.1292
     35 H11        -0.5143   -1.4201    4.5111 H         1 <0>         0.1317
     36 H12        -2.2650   -4.6789    2.3802 H         1 <0>         0.1341
     37 H13        -2.2439   -3.7678    5.2327 H         1 <0>         0.3940
     38 H14         3.8951    2.3001    0.8601 H         1 <0>         0.3928
@<TRIPOS>BOND
     1    1    6 ar
     2    1    2 ar
     3    1   25 1
     4    2    3 ar
     5    2   26 1
     6    3    4 ar
     7    3   24 1
     8    4    5 ar
     9    4   27 1
    10    5    6 ar
    11    5   28 1
    12    6    7 1
    13    7   12 1
    14    7    8 1
    15    7   29 1
    16    8    9 1
    17    8   30 1
    18    8   31 1
    19    9   10 1
    20    9   18 am
    21   10   11 1
    22   10   32 1
    23   10   33 1
    24   11   16 ar
    25   11   12 ar
    26   12   13 ar
    27   13   14 ar
    28   13   34 1
    29   14   15 ar
    30   14   35 1
    31   15   16 ar
    32   15   17 1
    33   16   36 1
    34   17   37 1
    35   18   19 2
    36   18   20 1
    37   20   21 1
    38   20   22 1
    39   20   23 1
    40   24   38 1
@<TRIPOS>MOLECULE
CHEMBL421368
   46    49     0     0     0
SMALL
USER_CHARGES

@<TRIPOS>ATOM
      1 C1         -0.0167    1.3781    0.0096 C.ar      1 <0>        -0.0621
      2 C2          1.1709    2.0855    0.0021 C.ar      1 <0>        -0.1391
      3 C3          2.3773    1.4107   -0.0130 C.ar      1 <0>        -0.0213
      4 C4          2.3960    0.0285   -0.0201 C.ar      1 <0>        -0.6783
      5 C5          1.2084   -0.6789   -0.0117 C.ar      1 <0>        -0.0212
      6 C6          0.0021   -0.0041    0.0020 C.ar      1 <0>        -0.1392
      7 S1          3.9337   -0.8316   -0.0405 S.o2      1 <0>         2.6918
      8 O1          3.6744   -2.1140   -0.5951 O.2       1 <0>        -0.9482
      9 O2          4.8903    0.0598   -0.5970 O.2       1 <0>        -0.9490
     10 N1          4.3776   -1.0785    1.5357 N.pl3     1 <0>        -0.9992
     11 C7          5.1885   -0.0960    2.2626 C.3       1 <0>         0.1574
     12 C8          6.2737   -0.8042    3.0344 C.ar      1 <0>        -0.0707
     13 C9          7.2846   -0.0302    3.5859 C.ar      1 <0>        -0.1410
     14 C10         8.3035   -0.6212    4.3136 C.ar      1 <0>         0.1101
     15 C11         8.3093   -1.9973    4.4920 C.ar      1 <0>        -0.1419
     16 C12         7.3054   -2.7630    3.9398 C.ar      1 <0>        -0.0901
     17 C13         6.2855   -2.1709    3.2036 C.ar      1 <0>        -0.0714
     18 C14         5.2395   -3.0765    2.6082 C.3       1 <0>        -0.0201
     19 C15         3.9689   -2.2902    2.2653 C.3       1 <0>         0.1290
     20 C16         4.8978   -4.1583    3.6002 C.ar      1 <0>        -0.0875
     21 C17         4.3827   -3.8217    4.8383 C.ar      1 <0>        -0.0896
     22 C18         4.0691   -4.8115    5.7496 C.ar      1 <0>        -0.1427
     23 C19         4.2710   -6.1442    5.4213 C.ar      1 <0>         0.1064
     24 C20         4.7877   -6.4793    4.1782 C.ar      1 <0>        -0.1420
     25 C21         5.0948   -5.4861    3.2685 C.ar      1 <0>        -0.0942
     26 O3          3.9638   -7.1197    6.3162 O.3       1 <0>        -0.5003
     27 O4          9.2922    0.1418    4.8496 O.3       1 <0>        -0.4978
     28 H1         -0.9591    1.9053    0.0259 H         1 <0>         0.1326
     29 H2          1.1563    3.1654    0.0076 H         1 <0>         0.1346
     30 H3          3.3051    1.9634   -0.0196 H         1 <0>         0.1402
     31 H4          1.2231   -1.7588   -0.0176 H         1 <0>         0.1398
     32 H5         -0.9258   -0.5567    0.0082 H         1 <0>         0.1345
     33 H6          5.6411    0.5968    1.5531 H         1 <0>         0.1087
     34 H7          4.5537    0.4576    2.9544 H         1 <0>         0.0866
     35 H8          7.2769    1.0407    3.4463 H         1 <0>         0.1327
     36 H9          9.0979   -2.4666    5.0614 H         1 <0>         0.1298
     37 H10         7.3113   -3.8339    4.0797 H         1 <0>         0.1279
     38 H11         5.6357   -3.5344    1.7019 H         1 <0>         0.1008
     39 H12         3.4470   -2.0110    3.1807 H         1 <0>         0.0835
     40 H13         3.3154   -2.8959    1.6376 H         1 <0>         0.1015
     41 H14         4.2256   -2.7840    5.0934 H         1 <0>         0.1258
     42 H15         3.6673   -4.5480    6.7168 H         1 <0>         0.1288
     43 H16         4.9459   -7.5161    3.9203 H         1 <0>         0.1304
     44 H17         5.4929   -5.7467    2.2989 H         1 <0>         0.1302
     45 H18         3.0559   -7.4453    6.2468 H         1 <0>         0.3920
     46 H19         9.1047    0.4568    5.7444 H         1 <0>         0.3917
@<TRIPOS>BOND
     1    1    6 ar
     2    1    2 ar
     3    1   28 1
     4    2    3 ar
     5    2   29 1
     6    3    4 ar
     7    3   30 1
     8    4    5 ar
     9    4    7 1
    10    5    6 ar
    11    5   31 1
    12    6   32 1
    13    7    8 2
    14    7    9 2
    15    7   10 1
    16   10   19 1
    17   10   11 1
    18   11   12 1
    19   11   33 1
    20   11   34 1
    21   12   17 ar
    22   12   13 ar
    23   13   14 ar
    24   13   35 1
    25   14   15 ar
    26   14   27 1
    27   15   16 ar
    28   15   36 1
    29   16   17 ar
    30   16   37 1
    31   17   18 1
    32   18   19 1
    33   18   20 1
    34   18   38 1
    35   19   39 1
    36   19   40 1
    37   20   25 ar
    38   20   21 ar
    39   21   22 ar
    40   21   41 1
    41   22   23 ar
    42   22   42 1
    43   23   24 ar
    44   23   26 1
    45   24   25 ar
    46   24   43 1
    47   25   44 1
    48   26   45 1
    49   27   46 1
@<TRIPOS>MOLECULE
CHEMBL421368__1
   46    49     0     0     0
SMALL
USER_CHARGES

@<TRIPOS>ATOM
      1 C1         -0.0167    1.3781    0.0096 C.ar      1 <0>        -0.0621
      2 C2          1.1709    2.0855    0.0021 C.ar      1 <0>        -0.1387
      3 C3          2.3773    1.4107   -0.0130 C.ar      1 <0>        -0.0196
      4 C4          2.3960    0.0285   -0.0201 C.ar      1 <0>        -0.6773
      5 C5          1.2084   -0.6789   -0.0117 C.ar      1 <0>        -0.0213
      6 C6          0.0021   -0.0041    0.0020 C.ar      1 <0>        -0.1389
      7 S1          3.9337   -0.8316   -0.0405 S.o2      1 <0>         2.6914
      8 O1          3.6744   -2.1140   -0.5951 O.2       1 <0>        -0.9479
      9 O2          4.8903    0.0598   -0.5970 O.2       1 <0>        -0.9493
     10 N1          4.3776   -1.0785    1.5357 N.pl3     1 <0>        -0.9969
     11 C7          5.1885   -0.0960    2.2626 C.3       1 <0>         0.1633
     12 C8          4.6190    0.1107    3.6437 C.ar      1 <0>        -0.0745
     13 C9          5.1028    1.1762    4.3894 C.ar      1 <0>        -0.1414
     14 C10         4.6270    1.4114    5.6681 C.ar      1 <0>         0.1104
     15 C11         3.6601    0.5731    6.2047 C.ar      1 <0>        -0.1429
     16 C12         3.1789   -0.4814    5.4594 C.ar      1 <0>        -0.0904
     17 C13         3.6523   -0.7149    4.1733 C.ar      1 <0>        -0.0694
     18 C14         3.0586   -1.8706    3.4113 C.3       1 <0>        -0.0222
     19 C15         3.9689   -2.2902    2.2653 C.3       1 <0>         0.1247
     20 C16         2.8680   -3.0359    4.3477 C.ar      1 <0>        -0.0887
     21 C17         3.9571   -3.5800    5.0031 C.ar      1 <0>        -0.0880
     22 C18         3.7850   -4.6485    5.8616 C.ar      1 <0>        -0.1413
     23 C19         2.5180   -5.1754    6.0662 C.ar      1 <0>         0.1075
     24 C20         1.4268   -4.6274    5.4077 C.ar      1 <0>        -0.1426
     25 C21         1.6034   -3.5556    4.5542 C.ar      1 <0>        -0.0955
     26 O3          2.3462   -6.2268    6.9099 O.3       1 <0>        -0.4999
     27 O4          5.1043    2.4568    6.3936 O.3       1 <0>        -0.4983
     28 H1         -0.9591    1.9053    0.0259 H         1 <0>         0.1317
     29 H2          1.1563    3.1654    0.0076 H         1 <0>         0.1335
     30 H3          3.3051    1.9634   -0.0196 H         1 <0>         0.1386
     31 H4          1.2231   -1.7588   -0.0176 H         1 <0>         0.1395
     32 H5         -0.9258   -0.5567    0.0082 H         1 <0>         0.1339
     33 H6          6.2129   -0.4598    2.3434 H         1 <0>         0.0939
     34 H7          5.1821    0.8506    1.7222 H         1 <0>         0.1011
     35 H8          5.8561    1.8263    3.9695 H         1 <0>         0.1329
     36 H9          3.2863    0.7463    7.2031 H         1 <0>         0.1289
     37 H10         2.4270   -1.1334    5.8789 H         1 <0>         0.1268
     38 H11         2.0906   -1.5742    3.0074 H         1 <0>         0.0958
     39 H12         3.4294   -2.9597    1.5954 H         1 <0>         0.1050
     40 H13         4.8490   -2.7957    2.6629 H         1 <0>         0.0892
     41 H14         4.9432   -3.1695    4.8435 H         1 <0>         0.1269
     42 H15         4.6361   -5.0736    6.3728 H         1 <0>         0.1298
     43 H16         0.4395   -5.0359    5.5653 H         1 <0>         0.1300
     44 H17         0.7537   -3.1259    4.0447 H         1 <0>         0.1279
     45 H18         2.1723   -5.9715    7.8263 H         1 <0>         0.3921
     46 H19         4.6090    3.2784    6.2723 H         1 <0>         0.3921
@<TRIPOS>BOND
     1    1    6 ar
     2    1    2 ar
     3    1   28 1
     4    2    3 ar
     5    2   29 1
     6    3    4 ar
     7    3   30 1
     8    4    5 ar
     9    4    7 1
    10    5    6 ar
    11    5   31 1
    12    6   32 1
    13    7    8 2
    14    7    9 2
    15    7   10 1
    16   10   19 1
    17   10   11 1
    18   11   12 1
    19   11   33 1
    20   11   34 1
    21   12   17 ar
    22   12   13 ar
    23   13   14 ar
    24   13   35 1
    25   14   15 ar
    26   14   27 1
    27   15   16 ar
    28   15   36 1
    29   16   17 ar
    30   16   37 1
    31   17   18 1
    32   18   19 1
    33   18   20 1
    34   18   38 1
    35   19   39 1
    36   19   40 1
    37   20   25 ar
    38   20   21 ar
    39   21   22 ar
    40   21   41 1
    41   22   23 ar
    42   22   42 1
    43   23   24 ar
    44   23   26 1
    45   24   25 ar
    46   24   43 1
    47   25   44 1
    48   26   45 1
    49   27   46 1
@<TRIPOS>MOLECULE
CHEMBL234638
   39    42     0     0     0
SMALL
USER_CHARGES

@<TRIPOS>ATOM
      1 C1         -0.0092    1.3607   -0.2014 C.ar      1 <0>        -0.0733
      2 C2          1.1793    2.0658   -0.2083 C.ar      1 <0>        -0.1779
      3 C3          2.3798    1.4022   -0.0142 C.ar      1 <0>         0.1395
      4 C4          2.3963    0.0251    0.1897 C.ar      1 <0>        -0.1690
      5 C5          1.2056   -0.6748    0.1978 C.ar      1 <0>         0.1443
      6 C6          0.0024   -0.0046    0.0002 C.ar      1 <0>        -0.1550
      7 O1          1.1745   -2.0184    0.3980 O.3       1 <0>        -0.3013
      8 C7          2.3688   -2.7444    0.1095 C.3       1 <0>         0.1427
      9 H1          2.5595   -2.7187   -0.9634 H         1 <0>         0.0797
     10 C8          3.5396   -2.1086    0.8490 C.3       1 <0>        -0.1165
     11 H2          4.4502   -2.6889    0.7007 H         1 <0>         0.0984
     12 C9          3.7277   -0.6488    0.3955 C.3       1 <0>        -0.0369
     13 H3          4.3342   -0.5965   -0.5087 H         1 <0>         0.0873
     14 C10         4.4309    0.0315    1.5915 C.3       1 <0>        -0.1119
     15 C11         4.1020   -0.8140    2.8344 C.3       1 <0>        -0.1254
     16 C12         3.2112   -1.9781    2.3524 C.3       1 <0>        -0.1160
     17 C13         2.2082   -4.1743    0.5573 C.ar      1 <0>        -0.0928
     18 C14         1.4718   -4.4639    1.6911 C.ar      1 <0>        -0.0736
     19 C15         1.3235   -5.7739    2.1039 C.ar      1 <0>        -0.1465
     20 C16         1.9138   -6.7993    1.3796 C.ar      1 <0>         0.1108
     21 C17         2.6518   -6.5061    0.2420 C.ar      1 <0>        -0.1446
     22 C18         2.7928   -5.1949   -0.1696 C.ar      1 <0>        -0.0898
     23 O2          1.7697   -8.0887    1.7839 O.3       1 <0>        -0.4998
     24 O3          3.5467    2.0985   -0.0234 O.3       1 <0>        -0.4918
     25 H4         -0.9458    1.8778   -0.3490 H         1 <0>         0.1338
     26 H5          1.1723    3.1343   -0.3654 H         1 <0>         0.1301
     27 H6         -0.9267   -0.5552    0.0048 H         1 <0>         0.1329
     28 H7          5.5085    0.0521    1.4285 H         1 <0>         0.0646
     29 H8          4.0528    1.0458    1.7193 H         1 <0>         0.0850
     30 H9          5.0199   -1.2040    3.2743 H         1 <0>         0.0635
     31 H10         3.5645   -0.2099    3.5654 H         1 <0>         0.0629
     32 H11         2.1579   -1.7354    2.4933 H         1 <0>         0.0720
     33 H12         3.4659   -2.8973    2.8799 H         1 <0>         0.0689
     34 H13         1.0124   -3.6653    2.2547 H         1 <0>         0.1319
     35 H14         0.7487   -5.9995    2.9900 H         1 <0>         0.1308
     36 H15         3.1123   -7.3026   -0.3236 H         1 <0>         0.1319
     37 H16         3.3635   -4.9666   -1.0575 H         1 <0>         0.1287
     38 H17         0.9979   -8.5346    1.4089 H         1 <0>         0.3928
     39 H18         3.9145    2.2382   -0.9067 H         1 <0>         0.3894
@<TRIPOS>BOND
     1    1    6 ar
     2    1    2 ar
     3    1   25 1
     4    2    3 ar
     5    2   26 1
     6    3    4 ar
     7    3   24 1
     8    4   12 1
     9    4    5 ar
    10    5    6 ar
    11    5    7 1
    12    6   27 1
    13    7    8 1
    14    8    9 1
    15    8   10 1
    16    8   17 1
    17   10   11 1
    18   10   16 1
    19   10   12 1
    20   12   13 1
    21   12   14 1
    22   14   15 1
    23   14   28 1
    24   14   29 1
    25   15   16 1
    26   15   30 1
    27   15   31 1
    28   16   32 1
    29   16   33 1
    30   17   22 ar
    31   17   18 ar
    32   18   19 ar
    33   18   34 1
    34   19   20 ar
    35   19   35 1
    36   20   21 ar
    37   20   23 1
    38   21   22 ar
    39   21   36 1
    40   22   37 1
    41   23   38 1
    42   24   39 1
@<TRIPOS>MOLECULE
CHEMBL434525
   61    66     0     0     0
SMALL
USER_CHARGES

@<TRIPOS>ATOM
      1 C1          1.1631   -0.6117   -0.4390 C.ar      1 <0>        -0.0896
      2 C2          2.3518    0.0921   -0.4484 C.ar      1 <0>        -0.1414
      3 C3          2.3800    1.4096   -0.0147 C.ar      1 <0>         0.1131
      4 C4          1.2137    2.0170    0.4273 C.ar      1 <0>        -0.1431
      5 C5          0.0275    1.3089    0.4346 C.ar      1 <0>        -0.0793
      6 C6          0.0021   -0.0041    0.0020 C.ar      1 <0>        -0.0869
      7 C7         -1.2934   -0.7740    0.0107 C.3       1 <0>        -0.0617
      8 H1         -2.1334   -0.0869    0.1120 H         1 <0>         0.1394
      9 C8         -1.2969   -1.7821    1.1721 C.3       1 <0>         0.1561
     10 H2         -2.1779   -2.4197    1.0986 H         1 <0>         0.0932
     11 O1         -0.1255   -2.5802    1.0967 O.3       1 <0>        -0.3033
     12 C9          0.1551   -3.3416    0.0132 C.ar      1 <0>         0.1265
     13 C10         0.9986   -4.4351    0.1946 C.ar      1 <0>        -0.1165
     14 C11         1.3394   -5.2447   -0.8692 C.ar      1 <0>        -0.1071
     15 C12         0.8443   -4.9772   -2.1372 C.ar      1 <0>         0.0919
     16 C13        -0.0005   -3.8960   -2.3286 C.ar      1 <0>        -0.0900
     17 C14        -0.3494   -3.0850   -1.2568 C.ar      1 <0>        -0.1473
     18 S1         -1.4568   -1.7323   -1.5285 S.3       1 <0>        -0.0922
     19 O2          1.1866   -5.7716   -3.1864 O.3       1 <0>        -0.4926
     20 C15        -1.3198   -1.0400    2.4835 C.ar      1 <0>        -0.1277
     21 C16        -0.1522   -0.5024    2.9927 C.ar      1 <0>        -0.0362
     22 C17        -0.1704    0.1779    4.1949 C.ar      1 <0>        -0.1537
     23 C18        -1.3617    0.3218    4.8912 C.ar      1 <0>         0.1460
     24 C19        -2.5320   -0.2182    4.3779 C.ar      1 <0>        -0.2094
     25 C20        -2.5094   -0.8931    3.1727 C.ar      1 <0>        -0.0586
     26 O3         -1.3822    0.9902    6.0743 O.3       1 <0>        -0.3093
     27 C21        -2.6441    1.0995    6.7359 C.3       1 <0>         0.0628
     28 C22        -2.4698    1.8785    8.0411 C.3       1 <0>         0.0449
     29 N1         -2.0692    3.2589    7.7377 N.3       1 <0>        -0.5123
     30 C23        -0.6619    3.3139    7.2720 C.3       1 <0>         0.0147
     31 C24         0.0800    4.1863    8.3314 C.3       1 <0>         0.0524
     32 C25        -0.7300    3.7891    9.6171 C.3       1 <0>        -0.1926
     33 C26        -2.1227    4.1156    8.9654 C.3       1 <0>         0.0266
     34 C27        -1.8114    5.5490    8.4315 C.3       1 <0>         0.0583
     35 O4         -0.4113    5.5348    8.0905 O.3       1 <0>        -0.3774
     36 O5          3.5482    2.1039   -0.0225 O.3       1 <0>        -0.4991
     37 H3          1.1398   -1.6359   -0.7807 H         1 <0>         0.1302
     38 H4          3.2585   -0.3831   -0.7926 H         1 <0>         0.1289
     39 H5          1.2331    3.0424    0.7657 H         1 <0>         0.1310
     40 H6         -0.8807    1.7813    0.7787 H         1 <0>         0.1264
     41 H7          1.3899   -4.6512    1.1778 H         1 <0>         0.1411
     42 H8          1.9942   -6.0894   -0.7144 H         1 <0>         0.1406
     43 H9         -0.3883   -3.6831   -3.3139 H         1 <0>         0.1386
     44 H10         0.5878   -6.5179   -3.3264 H         1 <0>         0.3917
     45 H11         0.7750   -0.6147    2.4504 H         1 <0>         0.1315
     46 H12         0.7420    0.5970    4.5927 H         1 <0>         0.1313
     47 H13        -3.4607   -0.1075    4.9180 H         1 <0>         0.1312
     48 H14        -3.4210   -1.3098    2.7705 H         1 <0>         0.1278
     49 H15        -3.3483    1.6246    6.0906 H         1 <0>         0.0738
     50 H16        -3.0265    0.1028    6.9560 H         1 <0>         0.0681
     51 H17        -3.4123    1.8857    8.5886 H         1 <0>         0.0966
     52 H18        -1.7003    1.4021    8.6486 H         1 <0>         0.0508
     53 H19        -0.2341    2.3118    7.2398 H         1 <0>         0.0836
     54 H20        -0.6060    3.7823    6.2894 H         1 <0>         0.0895
     55 H21         1.1632    4.0723    8.3735 H         1 <0>         0.1381
     56 H22        -0.6243    2.7332    9.8661 H         1 <0>         0.0845
     57 H23        -0.5062    4.4350   10.4661 H         1 <0>         0.0894
     58 H24        -3.0015    3.9995    9.5996 H         1 <0>         0.1296
     59 H25        -2.4130    5.7616    7.5478 H         1 <0>         0.0806
     60 H26        -2.0034    6.2906    9.2070 H         1 <0>         0.0743
     61 H27         3.7178    2.5792   -0.8474 H         1 <0>         0.3922
@<TRIPOS>BOND
     1    1    6 ar
     2    1    2 ar
     3    1   37 1
     4    2    3 ar
     5    2   38 1
     6    3    4 ar
     7    3   36 1
     8    4    5 ar
     9    4   39 1
    10    5    6 ar
    11    5   40 1
    12    6    7 1
    13    7    8 1
    14    7   18 1
    15    7    9 1
    16    9   10 1
    17    9   11 1
    18    9   20 1
    19   11   12 1
    20   12   17 ar
    21   12   13 ar
    22   13   14 ar
    23   13   41 1
    24   14   15 ar
    25   14   42 1
    26   15   16 ar
    27   15   19 1
    28   16   17 ar
    29   16   43 1
    30   17   18 1
    31   19   44 1
    32   20   25 ar
    33   20   21 ar
    34   21   22 ar
    35   21   45 1
    36   22   23 ar
    37   22   46 1
    38   23   24 ar
    39   23   26 1
    40   24   25 ar
    41   24   47 1
    42   25   48 1
    43   26   27 1
    44   27   28 1
    45   27   49 1
    46   27   50 1
    47   28   29 1
    48   28   51 1
    49   28   52 1
    50   29   33 1
    51   29   30 1
    52   30   31 1
    53   30   53 1
    54   30   54 1
    55   31   35 1
    56   31   32 1
    57   31   55 1
    58   32   33 1
    59   32   56 1
    60   32   57 1
    61   33   34 1
    62   33   58 1
    63   34   35 1
    64   34   59 1
    65   34   60 1
    66   36   61 1
@<TRIPOS>MOLECULE
CHEMBL434525__1
   62    67     0     0     0
SMALL
USER_CHARGES

@<TRIPOS>ATOM
      1 C1          1.1631   -0.6117   -0.4390 C.ar      1 <0>        -0.0873
      2 C2          2.3518    0.0921   -0.4484 C.ar      1 <0>        -0.1390
      3 C3          2.3800    1.4096   -0.0147 C.ar      1 <0>         0.1159
      4 C4          1.2137    2.0170    0.4273 C.ar      1 <0>        -0.1461
      5 C5          0.0275    1.3089    0.4346 C.ar      1 <0>        -0.0837
      6 C6          0.0021   -0.0041    0.0020 C.ar      1 <0>        -0.0899
      7 C7         -1.2934   -0.7740    0.0107 C.3       1 <0>        -0.0642
      8 H1         -2.1334   -0.0869    0.1120 H         1 <0>         0.1381
      9 C8         -1.2969   -1.7821    1.1721 C.3       1 <0>         0.1495
     10 H2         -2.1779   -2.4197    1.0986 H         1 <0>         0.0961
     11 O1         -0.1255   -2.5802    1.0967 O.3       1 <0>        -0.3050
     12 C9          0.1551   -3.3416    0.0132 C.ar      1 <0>         0.1210
     13 C10         0.9986   -4.4351    0.1946 C.ar      1 <0>        -0.1140
     14 C11         1.3394   -5.2447   -0.8692 C.ar      1 <0>        -0.1062
     15 C12         0.8443   -4.9772   -2.1372 C.ar      1 <0>         0.0987
     16 C13        -0.0005   -3.8960   -2.3286 C.ar      1 <0>        -0.0901
     17 C14        -0.3494   -3.0850   -1.2568 C.ar      1 <0>        -0.1476
     18 S1         -1.4568   -1.7323   -1.5285 S.3       1 <0>        -0.0839
     19 O2          1.1866   -5.7716   -3.1864 O.3       1 <0>        -0.4915
     20 C15        -1.3198   -1.0400    2.4835 C.ar      1 <0>        -0.1037
     21 C16        -0.1522   -0.5024    2.9927 C.ar      1 <0>        -0.0348
     22 C17        -0.1704    0.1779    4.1949 C.ar      1 <0>        -0.1419
     23 C18        -1.3617    0.3218    4.8912 C.ar      1 <0>         0.1212
     24 C19        -2.5320   -0.2182    4.3779 C.ar      1 <0>        -0.2022
     25 C20        -2.5094   -0.8931    3.1727 C.ar      1 <0>        -0.0590
     26 O3         -1.3822    0.9902    6.0743 O.3       1 <0>        -0.3256
     27 C21        -2.6441    1.0995    6.7359 C.3       1 <0>         0.0289
     28 C22        -2.4698    1.8785    8.0411 C.3       1 <0>        -0.0007
     29 N1         -2.0692    3.2589    7.7377 N.4       1 <0>        -0.3976
     30 C23        -0.6937    3.2829    7.1828 C.3       1 <0>        -0.0415
     31 C24         0.1467    4.0879    8.2217 C.3       1 <0>         0.0732
     32 C25        -0.5931    3.6702    9.5428 C.3       1 <0>        -0.1727
     33 C26        -2.0117    4.0693    8.9962 C.3       1 <0>        -0.0063
     34 C27        -1.6826    5.5105    8.4949 C.3       1 <0>         0.0286
     35 O4         -0.3088    5.4609    8.0623 O.3       1 <0>        -0.3547
     36 O5          3.5482    2.1039   -0.0225 O.3       1 <0>        -0.4999
     37 H3          1.1398   -1.6359   -0.7807 H         1 <0>         0.1322
     38 H4          3.2585   -0.3831   -0.7926 H         1 <0>         0.1315
     39 H5          1.2331    3.0424    0.7657 H         1 <0>         0.1295
     40 H6         -0.8807    1.7813    0.7787 H         1 <0>         0.1234
     41 H7          1.3899   -4.6512    1.1778 H         1 <0>         0.1413
     42 H8          1.9942   -6.0894   -0.7144 H         1 <0>         0.1430
     43 H9         -0.3883   -3.6831   -3.3139 H         1 <0>         0.1405
     44 H10         0.5878   -6.5179   -3.3264 H         1 <0>         0.3947
     45 H11         0.7750   -0.6147    2.4504 H         1 <0>         0.1388
     46 H12         0.7420    0.5970    4.5927 H         1 <0>         0.1346
     47 H13        -3.4607   -0.1075    4.9180 H         1 <0>         0.1312
     48 H14        -3.4210   -1.3098    2.7705 H         1 <0>         0.1345
     49 H15        -3.3483    1.6246    6.0906 H         1 <0>         0.0868
     50 H16        -3.0265    0.1028    6.9560 H         1 <0>         0.1112
     51 H17        -3.4123    1.8857    8.5886 H         1 <0>         0.1503
     52 H18        -1.7003    1.4021    8.6486 H         1 <0>         0.1409
     53 H19        -0.3063    2.2686    7.0865 H         1 <0>         0.1588
     54 H20        -0.6840    3.7863    6.2160 H         1 <0>         0.1414
     55 H21         1.2254    3.9349    8.1885 H         1 <0>         0.1789
     56 H22        -0.5107    2.6025    9.7462 H         1 <0>         0.1146
     57 H23        -0.2912    4.2749   10.3980 H         1 <0>         0.1340
     58 H24        -2.8516    3.9596    9.6823 H         1 <0>         0.1872
     59 H25        -2.3315    5.7774    7.6608 H         1 <0>         0.0968
     60 H26        -1.7967    6.2280    9.3074 H         1 <0>         0.1209
     61 H27         3.7178    2.5792   -0.8474 H         1 <0>         0.3957
     62 H28        -2.7166    3.6745    7.0849 H         1 <0>         0.4252
@<TRIPOS>BOND
     1    1    6 ar
     2    1    2 ar
     3    1   37 1
     4    2    3 ar
     5    2   38 1
     6    3    4 ar
     7    3   36 1
     8    4    5 ar
     9    4   39 1
    10    5    6 ar
    11    5   40 1
    12    6    7 1
    13    7    8 1
    14    7   18 1
    15    7    9 1
    16    9   10 1
    17    9   11 1
    18    9   20 1
    19   11   12 1
    20   12   17 ar
    21   12   13 ar
    22   13   14 ar
    23   13   41 1
    24   14   15 ar
    25   14   42 1
    26   15   16 ar
    27   15   19 1
    28   16   17 ar
    29   16   43 1
    30   17   18 1
    31   19   44 1
    32   20   25 ar
    33   20   21 ar
    34   21   22 ar
    35   21   45 1
    36   22   23 ar
    37   22   46 1
    38   23   24 ar
    39   23   26 1
    40   24   25 ar
    41   24   47 1
    42   25   48 1
    43   26   27 1
    44   27   28 1
    45   27   49 1
    46   27   50 1
    47   28   29 1
    48   28   51 1
    49   28   52 1
    50   29   33 1
    51   29   30 1
    52   29   62 1
    53   30   31 1
    54   30   53 1
    55   30   54 1
    56   31   35 1
    57   31   32 1
    58   31   55 1
    59   32   33 1
    60   32   56 1
    61   32   57 1
    62   33   34 1
    63   33   58 1
    64   34   35 1
    65   34   59 1
    66   34   60 1
    67   36   61 1
@<TRIPOS>MOLECULE
CHEMBL434525__2
   61    66     0     0     0
SMALL
USER_CHARGES

@<TRIPOS>ATOM
      1 C1         -0.6210   -0.2377   -1.0916 C.ar      1 <0>        -0.0895
      2 C2          0.5763    0.4217   -1.2917 C.ar      1 <0>        -0.1413
      3 C3          0.7473    1.7096   -0.8053 C.ar      1 <0>         0.1129
      4 C4         -0.2852    2.3322   -0.1190 C.ar      1 <0>        -0.1433
      5 C5         -1.4807    1.6686    0.0784 C.ar      1 <0>        -0.0794
      6 C6         -1.6486    0.3850   -0.4073 C.ar      1 <0>        -0.0865
      7 C7         -2.9538   -0.3364   -0.1909 C.3       1 <0>        -0.0616
      8 H1         -3.7266    0.3736    0.1037 H         1 <0>         0.1394
      9 C8         -2.7858   -1.4105    0.8968 C.3       1 <0>         0.1562
     10 H2         -3.6937   -2.0102    0.9603 H         1 <0>         0.0932
     11 O1         -1.6884   -2.2449    0.5587 O.3       1 <0>        -0.3033
     12 C9         -1.6531   -2.9507   -0.5959 C.ar      1 <0>         0.1265
     13 C10        -0.8428   -4.0831   -0.6348 C.ar      1 <0>        -0.1164
     14 C11        -0.7470   -4.8403   -1.7840 C.ar      1 <0>        -0.1071
     15 C12        -1.4591   -4.4806   -2.9189 C.ar      1 <0>         0.0918
     16 C13        -2.2731   -3.3599   -2.8902 C.ar      1 <0>        -0.0900
     17 C14        -2.3753   -2.6014   -1.7315 C.ar      1 <0>        -0.1474
     18 S1         -3.4492   -1.1957   -1.7176 S.3       1 <0>        -0.0924
     19 O2         -1.3584   -5.2236   -4.0533 O.3       1 <0>        -0.4926
     20 C15        -2.5262   -0.7468    2.2246 C.ar      1 <0>        -0.1285
     21 C16        -1.2596   -0.2831    2.5285 C.ar      1 <0>        -0.0361
     22 C17        -1.0189    0.3253    3.7452 C.ar      1 <0>        -0.1539
     23 C18        -2.0496    0.4711    4.6624 C.ar      1 <0>         0.1476
     24 C19        -3.3197    0.0054    4.3549 C.ar      1 <0>        -0.2102
     25 C20        -3.5564   -0.5976    3.1347 C.ar      1 <0>        -0.0584
     26 O3         -1.8153    1.0688    5.8602 O.3       1 <0>        -0.3081
     27 C21        -2.9233    1.1848    6.7551 C.3       1 <0>         0.0655
     28 C22        -2.4698    1.8785    8.0411 C.3       1 <0>         0.0413
     29 N1         -2.0692    3.2589    7.7377 N.3       1 <0>        -0.5125
     30 C23        -0.7038    3.3013    7.1594 C.3       1 <0>         0.0181
     31 C24         0.1058    4.2418    8.1048 C.3       1 <0>         0.0479
     32 C25        -1.0337    5.2348    8.5314 C.3       1 <0>        -0.1538
     33 C26        -2.0060    4.0860    8.9850 C.3       1 <0>         0.0274
     34 C27        -1.0296    3.2915    9.9082 C.3       1 <0>         0.0095
     35 O4          0.2759    3.4633    9.3226 O.3       1 <0>        -0.3775
     36 O5          1.9244    2.3602   -1.0004 O.3       1 <0>        -0.4991
     37 H3         -0.7562   -1.2386   -1.4740 H         1 <0>         0.1303
     38 H4          1.3787   -0.0653   -1.8259 H         1 <0>         0.1289
     39 H5         -0.1545    3.3347    0.2609 H         1 <0>         0.1307
     40 H6         -2.2848    2.1528    0.6125 H         1 <0>         0.1263
     41 H7         -0.2837   -4.3709    0.2433 H         1 <0>         0.1412
     42 H8         -0.1151   -5.7160   -1.8003 H         1 <0>         0.1406
     43 H9         -2.8292   -3.0753   -3.7712 H         1 <0>         0.1385
     44 H10        -2.0071   -5.9381   -4.1144 H         1 <0>         0.3917
     45 H11        -0.4576   -0.3968    1.8142 H         1 <0>         0.1313
     46 H12        -0.0292    0.6867    3.9824 H         1 <0>         0.1313
     47 H13        -4.1237    0.1177    5.0672 H         1 <0>         0.1311
     48 H14        -4.5460   -0.9564    2.8931 H         1 <0>         0.1277
     49 H15        -3.7111    1.7723    6.2837 H         1 <0>         0.0731
     50 H16        -3.3038    0.1914    6.9929 H         1 <0>         0.0675
     51 H17        -3.2908    1.8877    8.7580 H         1 <0>         0.0962
     52 H18        -1.6228    1.3394    8.4655 H         1 <0>         0.0581
     53 H19        -0.2649    2.3036    7.1509 H         1 <0>         0.0772
     54 H20        -0.7325    3.7121    6.1502 H         1 <0>         0.0873
     55 H21         1.0124    4.6786    7.6859 H         1 <0>         0.1405
     56 H22        -0.7362    5.8792    9.3587 H         1 <0>         0.0889
     57 H23        -1.4266    5.8042    7.6891 H         1 <0>         0.0958
     58 H24        -2.9607    4.3907    9.4136 H         1 <0>         0.1352
     59 H25        -1.0473    3.7015   10.9179 H         1 <0>         0.0751
     60 H26        -1.3002    2.2357    9.9239 H         1 <0>         0.0754
     61 H27         1.9578    2.8764   -1.8174 H         1 <0>         0.3921
@<TRIPOS>BOND
     1    1    6 ar
     2    1    2 ar
     3    1   37 1
     4    2    3 ar
     5    2   38 1
     6    3    4 ar
     7    3   36 1
     8    4    5 ar
     9    4   39 1
    10    5    6 ar
    11    5   40 1
    12    6    7 1
    13    7    8 1
    14    7   18 1
    15    7    9 1
    16    9   10 1
    17    9   11 1
    18    9   20 1
    19   11   12 1
    20   12   17 ar
    21   12   13 ar
    22   13   14 ar
    23   13   41 1
    24   14   15 ar
    25   14   42 1
    26   15   16 ar
    27   15   19 1
    28   16   17 ar
    29   16   43 1
    30   17   18 1
    31   19   44 1
    32   20   25 ar
    33   20   21 ar
    34   21   22 ar
    35   21   45 1
    36   22   23 ar
    37   22   46 1
    38   23   24 ar
    39   23   26 1
    40   24   25 ar
    41   24   47 1
    42   25   48 1
    43   26   27 1
    44   27   28 1
    45   27   49 1
    46   27   50 1
    47   28   29 1
    48   28   51 1
    49   28   52 1
    50   29   33 1
    51   29   30 1
    52   30   31 1
    53   30   53 1
    54   30   54 1
    55   31   35 1
    56   31   32 1
    57   31   55 1
    58   32   33 1
    59   32   56 1
    60   32   57 1
    61   33   34 1
    62   33   58 1
    63   34   35 1
    64   34   59 1
    65   34   60 1
    66   36   61 1
@<TRIPOS>MOLECULE
CHEMBL434525__3
   62    67     0     0     0
SMALL
USER_CHARGES

@<TRIPOS>ATOM
      1 C1         -0.0395   -0.3691   -0.9229 C.ar      1 <0>        -0.0872
      2 C2          1.1593    0.3033   -1.0616 C.ar      1 <0>        -0.1389
      3 C3          1.2839    1.6016   -0.5885 C.ar      1 <0>         0.1158
      4 C4          0.2036    2.2212    0.0228 C.ar      1 <0>        -0.1463
      5 C5         -0.9930    1.5445    0.1591 C.ar      1 <0>        -0.0838
      6 C6         -1.1146    0.2507   -0.3132 C.ar      1 <0>        -0.0897
      7 C7         -2.4213   -0.4850   -0.1637 C.3       1 <0>        -0.0642
      8 H1         -3.2196    0.2192    0.0705 H         1 <0>         0.1381
      9 C8         -2.3062   -1.5376    0.9515 C.3       1 <0>         0.1495
     10 H2         -3.2085   -2.1488    0.9705 H         1 <0>         0.0961
     11 O1         -1.1795   -2.3624    0.6960 O.3       1 <0>        -0.3050
     12 C9         -1.0646   -3.0875   -0.4413 C.ar      1 <0>         0.1210
     13 C10        -0.2390   -4.2089   -0.4102 C.ar      1 <0>        -0.1139
     14 C11        -0.0634   -4.9845   -1.5376 C.ar      1 <0>        -0.1061
     15 C12        -0.7094   -4.6545   -2.7201 C.ar      1 <0>         0.0987
     16 C13        -1.5379   -3.5449   -2.7613 C.ar      1 <0>        -0.0901
     17 C14        -1.7205   -2.7680   -1.6249 C.ar      1 <0>        -0.1478
     18 S1         -2.8113   -1.3773   -1.7018 S.3       1 <0>        -0.0840
     19 O2         -0.5300   -5.4155   -3.8325 O.3       1 <0>        -0.4915
     20 C15        -2.1368   -0.8475    2.2805 C.ar      1 <0>        -0.1042
     21 C16        -0.8972   -0.3610    2.6524 C.ar      1 <0>        -0.0347
     22 C17        -0.7392    0.2716    3.8703 C.ar      1 <0>        -0.1419
     23 C18        -1.8258    0.4189    4.7202 C.ar      1 <0>         0.1225
     24 C19        -3.0686   -0.0698    4.3445 C.ar      1 <0>        -0.2029
     25 C20        -3.2225   -0.6970    3.1233 C.ar      1 <0>        -0.0589
     26 O3         -1.6729    1.0404    5.9191 O.3       1 <0>        -0.3248
     27 C21        -2.8349    1.1564    6.7426 C.3       1 <0>         0.0307
     28 C22        -2.4698    1.8785    8.0411 C.3       1 <0>        -0.0077
     29 N1         -2.0692    3.2589    7.7377 N.4       1 <0>        -0.3968
     30 C23        -0.7434    3.2730    7.0724 C.3       1 <0>        -0.0380
     31 C24         0.1612    4.1486    7.9938 C.3       1 <0>         0.0723
     32 C25        -0.9095    5.1659    8.5282 C.3       1 <0>        -0.1729
     33 C26        -1.8938    4.0372    9.0056 C.3       1 <0>        -0.0066
     34 C27        -0.8910    3.1747    9.8347 C.3       1 <0>         0.0206
     35 O4          0.3795    3.3205    9.1705 O.3       1 <0>        -0.3529
     36 O5          2.4622    2.2650   -0.7233 O.3       1 <0>        -0.4999
     37 H3         -0.1383   -1.3781   -1.2950 H         1 <0>         0.1323
     38 H4          1.9989   -0.1813   -1.5375 H         1 <0>         0.1315
     39 H5          0.2982    3.2316    0.3922 H         1 <0>         0.1292
     40 H6         -1.8343    2.0265    0.6349 H         1 <0>         0.1233
     41 H7          0.2690   -4.4737    0.5053 H         1 <0>         0.1413
     42 H8          0.5795   -5.8514   -1.4995 H         1 <0>         0.1430
     43 H9         -2.0428   -3.2833   -3.6795 H         1 <0>         0.1405
     44 H10        -1.1645   -6.1399   -3.9201 H         1 <0>         0.3947
     45 H11        -0.0517   -0.4759    1.9905 H         1 <0>         0.1387
     46 H12         0.2294    0.6508    4.1608 H         1 <0>         0.1347
     47 H13        -3.9160    0.0436    5.0044 H         1 <0>         0.1312
     48 H14        -4.1908   -1.0737    2.8284 H         1 <0>         0.1344
     49 H15        -3.5999    1.7246    6.2136 H         1 <0>         0.0867
     50 H16        -3.2164    0.1620    6.9748 H         1 <0>         0.1113
     51 H17        -3.3331    1.8887    8.7064 H         1 <0>         0.1519
     52 H18        -1.6435    1.3587    8.5260 H         1 <0>         0.1463
     53 H19        -0.3446    2.2611    7.0010 H         1 <0>         0.1555
     54 H20        -0.8215    3.7211    6.0818 H         1 <0>         0.1404
     55 H21         1.0549    4.5673    7.5312 H         1 <0>         0.1788
     56 H22        -0.5346    5.7685    9.3555 H         1 <0>         0.1344
     57 H23        -1.3338    5.7795    7.7335 H         1 <0>         0.1163
     58 H24        -2.8064    4.3602    9.5063 H         1 <0>         0.1877
     59 H25        -0.8276    3.5480   10.8569 H         1 <0>         0.1188
     60 H26        -1.2004    2.1296    9.8323 H         1 <0>         0.1009
     61 H27         2.5386    2.7679   -1.5457 H         1 <0>         0.3956
     62 H28        -2.7598    3.7014    7.1500 H         1 <0>         0.4256
@<TRIPOS>BOND
     1    1    6 ar
     2    1    2 ar
     3    1   37 1
     4    2    3 ar
     5    2   38 1
     6    3    4 ar
     7    3   36 1
     8    4    5 ar
     9    4   39 1
    10    5    6 ar
    11    5   40 1
    12    6    7 1
    13    7    8 1
    14    7   18 1
    15    7    9 1
    16    9   10 1
    17    9   11 1
    18    9   20 1
    19   11   12 1
    20   12   17 ar
    21   12   13 ar
    22   13   14 ar
    23   13   41 1
    24   14   15 ar
    25   14   42 1
    26   15   16 ar
    27   15   19 1
    28   16   17 ar
    29   16   43 1
    30   17   18 1
    31   19   44 1
    32   20   25 ar
    33   20   21 ar
    34   21   22 ar
    35   21   45 1
    36   22   23 ar
    37   22   46 1
    38   23   24 ar
    39   23   26 1
    40   24   25 ar
    41   24   47 1
    42   25   48 1
    43   26   27 1
    44   27   28 1
    45   27   49 1
    46   27   50 1
    47   28   29 1
    48   28   51 1
    49   28   52 1
    50   29   33 1
    51   29   30 1
    52   29   62 1
    53   30   31 1
    54   30   53 1
    55   30   54 1
    56   31   35 1
    57   31   32 1
    58   31   55 1
    59   32   33 1
    60   32   56 1
    61   32   57 1
    62   33   34 1
    63   33   58 1
    64   34   35 1
    65   34   59 1
    66   34   60 1
    67   36   61 1
@<TRIPOS>MOLECULE
CHEMBL61026
   56    59     0     0     0
SMALL
USER_CHARGES

@<TRIPOS>ATOM
      1 C1         -0.0187    1.5258    0.0104 C.3       1 <0>        -0.1820
      2 C2          0.0021   -0.0041    0.0020 C.3       1 <0>         0.0872
      3 N1          0.6878   -0.4765   -1.2033 N.pl3     1 <0>        -0.5840
      4 C3          2.1353   -0.7012   -1.1821 C.3       1 <0>         0.1538
      5 C4          2.4170   -2.1231   -0.7698 C.ar      1 <0>        -0.0851
      6 C5          2.5796   -2.4556    0.5664 C.ar      1 <0>        -0.1545
      7 C6          2.8369   -3.7702    0.9067 C.ar      1 <0>         0.1099
      8 N2          2.9283   -4.7019   -0.0220 N.ar      1 <0>        -0.4700
      9 C7          2.7793   -4.4221   -1.3020 C.ar      1 <0>         0.1096
     10 C8          2.5139   -3.1308   -1.7171 C.ar      1 <0>        -0.1630
     11 C9         -0.0351   -0.7117   -2.3673 C.ar      1 <0>         0.4611
     12 C10         0.6233   -1.1652   -3.5040 C.ar      1 <0>        -0.2239
     13 C11        -0.1108   -1.3989   -4.6676 C.ar      1 <0>         0.1366
     14 C12        -1.4882   -1.1654   -4.6417 C.ar      1 <0>        -0.1751
     15 C13        -2.0748   -0.7118   -3.4662 C.ar      1 <0>         0.2493
     16 N3         -1.3423   -0.5060   -2.3772 N.ar      1 <0>        -0.5185
     17 C14        -3.5356   -0.4602   -3.4254 C.ar      1 <0>        -0.1134
     18 C15        -4.1327    0.0004   -2.2525 C.ar      1 <0>        -0.0851
     19 C16        -5.4909    0.2339   -2.2179 C.ar      1 <0>        -0.1328
     20 C17        -6.2644    0.0103   -3.3494 C.ar      1 <0>         0.1558
     21 C18        -5.6728   -0.4484   -4.5187 C.ar      1 <0>        -0.1006
     22 C19        -4.3138   -0.6782   -4.5612 C.ar      1 <0>        -0.0530
     23 C20        -6.5158   -0.6897   -5.7443 C.3       1 <0>        -0.1234
     24 O1         -7.6027    0.2404   -3.3120 O.3       1 <0>        -0.4884
     25 C21         0.5551   -1.8829   -5.9023 C.ar      1 <0>        -0.1019
     26 C22         1.9288   -2.1160   -5.9103 C.ar      1 <0>        -0.0797
     27 C23         2.5429   -2.5667   -7.0613 C.ar      1 <0>        -0.1185
     28 C24         1.7973   -2.7869   -8.2053 C.ar      1 <0>        -0.0764
     29 C25         0.4333   -2.5571   -8.2029 C.ar      1 <0>        -0.1181
     30 C26        -0.1920   -2.1115   -7.0560 C.ar      1 <0>        -0.0774
     31 H1          1.0039    1.9031    0.0027 H         1 <0>         0.0776
     32 H2         -0.5459    1.8868   -0.8726 H         1 <0>         0.0577
     33 H3         -0.5289    1.8773    0.9072 H         1 <0>         0.0897
     34 H4          0.5293   -0.3651    0.8851 H         1 <0>         0.1141
     35 H5         -1.0205   -0.3814    0.0098 H         1 <0>         0.0766
     36 H6          2.5453   -0.5232   -2.1762 H         1 <0>         0.1073
     37 H7          2.5986   -0.0180   -0.4703 H         1 <0>         0.1197
     38 H8          2.5066   -1.6969    1.3315 H         1 <0>         0.1388
     39 H9          2.9649   -4.0374    1.9453 H         1 <0>         0.1637
     40 H10         2.8614   -5.2118   -2.0341 H         1 <0>         0.1622
     41 H11         2.3879   -2.9088   -2.7665 H         1 <0>         0.1328
     42 H12         1.6898   -1.3344   -3.4872 H         1 <0>         0.1763
     43 H13        -2.0888   -1.3348   -5.5232 H         1 <0>         0.1782
     44 H14        -3.5318    0.1738   -1.3721 H         1 <0>         0.1225
     45 H15        -5.9539    0.5907   -1.3097 H         1 <0>         0.1476
     46 H16        -3.8534   -1.0308   -5.4724 H         1 <0>         0.1439
     47 H17        -6.5603    0.2220   -6.3400 H         1 <0>         0.0811
     48 H18        -6.0736   -1.4901   -6.3376 H         1 <0>         0.0766
     49 H19        -7.5232   -0.9757   -5.4419 H         1 <0>         0.0839
     50 H20        -7.8540    1.1409   -3.5590 H         1 <0>         0.4057
     51 H21         2.5120   -1.9441   -5.0178 H         1 <0>         0.1279
     52 H22         3.6077   -2.7473   -7.0688 H         1 <0>         0.1375
     53 H23         2.2819   -3.1392   -9.1039 H         1 <0>         0.1368
     54 H24        -0.1442   -2.7307   -9.0989 H         1 <0>         0.1380
     55 H25        -1.2577   -1.9363   -7.0540 H         1 <0>         0.1320
     56 H26        -1.7768   -0.1927   -1.5685 H         1 <0>         0.4329
@<TRIPOS>BOND
     1    1    2 1
     2    1   31 1
     3    1   32 1
     4    1   33 1
     5    2    3 1
     6    2   34 1
     7    2   35 1
     8    3    4 1
     9    3   11 1
    10    4    5 1
    11    4   36 1
    12    4   37 1
    13    5   10 ar
    14    5    6 ar
    15    6    7 ar
    16    6   38 1
    17    7    8 ar
    18    7   39 1
    19    8    9 ar
    20    9   10 ar
    21    9   40 1
    22   10   41 1
    23   11   16 ar
    24   11   12 ar
    25   12   13 ar
    26   12   42 1
    27   13   14 ar
    28   13   25 1
    29   14   15 ar
    30   14   43 1
    31   15   16 ar
    32   15   17 1
    33   16   56 1
    34   17   22 ar
    35   17   18 ar
    36   18   19 ar
    37   18   44 1
    38   19   20 ar
    39   19   45 1
    40   20   21 ar
    41   20   24 1
    42   21   22 ar
    43   21   23 1
    44   22   46 1
    45   23   47 1
    46   23   48 1
    47   23   49 1
    48   24   50 1
    49   25   30 ar
    50   25   26 ar
    51   26   27 ar
    52   26   51 1
    53   27   28 ar
    54   27   52 1
    55   28   29 ar
    56   28   53 1
    57   29   30 ar
    58   29   54 1
    59   30   55 1
@<TRIPOS>MOLECULE
CHEMBL58330
   67    71     0     0     0
SMALL
USER_CHARGES

@<TRIPOS>ATOM
      1 C1         -0.0184    1.5028    0.0103 C.3       1 <0>        -0.1187
      2 C2          0.0021   -0.0041    0.0020 C.ar      1 <0>        -0.1001
      3 C3          0.0057   -0.6863   -1.1964 C.ar      1 <0>        -0.0530
      4 C4          0.0246   -2.0801   -1.2032 C.ar      1 <0>        -0.1111
      5 C5          0.0398   -2.7803    0.0026 C.ar      1 <0>        -0.0878
      6 C6          0.0361   -2.0927    1.1974 C.ar      1 <0>        -0.1314
      7 C7          0.0230   -0.7039    1.2009 C.ar      1 <0>         0.1544
      8 O1          0.0249   -0.0290    2.3798 O.3       1 <0>        -0.4877
      9 C8          0.0281   -2.8168   -2.4901 C.ar      1 <0>         0.2461
     10 C9          0.0181   -2.1095   -3.6869 C.ar      1 <0>        -0.1747
     11 C10         0.0220   -2.8148   -4.8927 C.ar      1 <0>         0.1343
     12 C11         0.0357   -4.2098   -4.8451 C.ar      1 <0>        -0.2179
     13 C12         0.0451   -4.8451   -3.6096 C.ar      1 <0>         0.4611
     14 N1          0.0461   -4.1448   -2.4865 N.ar      1 <0>        -0.5206
     15 N2          0.0583   -6.2342   -3.5522 N.pl3     1 <0>        -0.5810
     16 C13         0.0623   -7.0184   -4.7897 C.3       1 <0>         0.1144
     17 C14         1.5062   -7.2778   -5.2243 C.3       1 <0>        -0.0985
     18 C15         1.5104   -8.0845   -6.4972 C.ar      1 <0>        -0.0970
     19 C16         1.5178   -9.4656   -6.4402 C.ar      1 <0>        -0.1126
     20 C17         1.5216  -10.2056   -7.6078 C.ar      1 <0>        -0.1134
     21 C18         1.5176   -9.5644   -8.8324 C.ar      1 <0>        -0.1121
     22 C19         1.5092   -8.1833   -8.8895 C.ar      1 <0>        -0.1142
     23 C20         1.5010   -7.4433   -7.7219 C.ar      1 <0>        -0.1155
     24 C21         0.0682   -6.9136   -2.2544 C.3       1 <0>         0.1367
     25 C22        -1.3492   -7.1600   -1.8055 C.ar      1 <0>        -0.1339
     26 C23        -2.0096   -6.2100   -1.0491 C.ar      1 <0>        -0.1166
     27 C24        -3.3098   -6.4360   -0.6374 C.ar      1 <0>        -0.1096
     28 C25        -3.9495   -7.6118   -0.9825 C.ar      1 <0>        -0.0984
     29 C26        -3.2894   -8.5614   -1.7396 C.ar      1 <0>        -0.1082
     30 C27        -1.9907   -8.3335   -2.1550 C.ar      1 <0>        -0.0924
     31 C28         0.0112   -2.0985   -6.1924 C.ar      1 <0>        -0.1008
     32 C29         0.0095   -2.8166   -7.3864 C.ar      1 <0>        -0.0784
     33 C30        -0.0005   -2.1454   -8.5924 C.ar      1 <0>        -0.1193
     34 C31        -0.0083   -0.7624   -8.6170 C.ar      1 <0>        -0.0776
     35 C32        -0.0061   -0.0446   -7.4346 C.ar      1 <0>        -0.1189
     36 C33        -0.0029   -0.7056   -6.2230 C.ar      1 <0>        -0.0782
     37 H1          1.0042    1.8801    0.0026 H         1 <0>         0.0839
     38 H2         -0.5455    1.8639   -0.8728 H         1 <0>         0.0752
     39 H3         -0.5286    1.8543    0.9071 H         1 <0>         0.0778
     40 H4         -0.0065   -0.1413   -2.1287 H         1 <0>         0.1441
     41 H5          0.0541   -3.8602    0.0004 H         1 <0>         0.1203
     42 H6          0.0478   -2.6344    2.1316 H         1 <0>         0.1474
     43 H7         -0.8578    0.1543    2.7295 H         1 <0>         0.4044
     44 H8          0.0072   -1.0295   -3.6845 H         1 <0>         0.1776
     45 H9          0.0387   -4.7880   -5.7573 H         1 <0>         0.1780
     46 H10        -0.4421   -7.9694   -4.6188 H         1 <0>         0.1070
     47 H11        -0.4588   -6.4660   -5.5716 H         1 <0>         0.0970
     48 H12         2.0106   -6.3268   -5.3952 H         1 <0>         0.0803
     49 H13         2.0274   -7.8301   -4.4424 H         1 <0>         0.0841
     50 H14         1.5210   -9.9666   -5.4834 H         1 <0>         0.1220
     51 H15         1.5282  -11.2847   -7.5632 H         1 <0>         0.1265
     52 H16         1.5213  -10.1425   -9.7447 H         1 <0>         0.1265
     53 H17         1.5063   -7.6823   -9.8463 H         1 <0>         0.1261
     54 H18         1.4907   -6.3643   -7.7664 H         1 <0>         0.1195
     55 H19         0.5908   -7.8657   -2.3467 H         1 <0>         0.1233
     56 H20         0.5781   -6.2889   -1.5211 H         1 <0>         0.0833
     57 H21        -1.5098   -5.2914   -0.7796 H         1 <0>         0.1023
     58 H22        -3.8255   -5.6941   -0.0459 H         1 <0>         0.1298
     59 H23        -4.9650   -7.7887   -0.6602 H         1 <0>         0.1326
     60 H24        -3.7891   -9.4802   -2.0089 H         1 <0>         0.1333
     61 H25        -1.4762   -9.0738   -2.7497 H         1 <0>         0.1286
     62 H26         0.0163   -3.8965   -7.3684 H         1 <0>         0.1293
     63 H27        -0.0018   -2.7010   -9.5185 H         1 <0>         0.1368
     64 H28        -0.0157   -0.2412   -9.5628 H         1 <0>         0.1361
     65 H29        -0.0115    1.0351   -7.4596 H         1 <0>         0.1375
     66 H30        -0.0061   -0.1442   -5.3004 H         1 <0>         0.1317
     67 H31         0.0568   -4.6142   -1.6377 H         1 <0>         0.4301
@<TRIPOS>BOND
     1    1    2 1
     2    1   37 1
     3    1   38 1
     4    1   39 1
     5    2    7 ar
     6    2    3 ar
     7    3    4 ar
     8    3   40 1
     9    4    5 ar
    10    4    9 1
    11    5    6 ar
    12    5   41 1
    13    6    7 ar
    14    6   42 1
    15    7    8 1
    16    8   43 1
    17    9   14 ar
    18    9   10 ar
    19   10   11 ar
    20   10   44 1
    21   11   12 ar
    22   11   31 1
    23   12   13 ar
    24   12   45 1
    25   13   14 ar
    26   13   15 1
    27   14   67 1
    28   15   16 1
    29   15   24 1
    30   16   17 1
    31   16   46 1
    32   16   47 1
    33   17   18 1
    34   17   48 1
    35   17   49 1
    36   18   23 ar
    37   18   19 ar
    38   19   20 ar
    39   19   50 1
    40   20   21 ar
    41   20   51 1
    42   21   22 ar
    43   21   52 1
    44   22   23 ar
    45   22   53 1
    46   23   54 1
    47   24   25 1
    48   24   55 1
    49   24   56 1
    50   25   30 ar
    51   25   26 ar
    52   26   27 ar
    53   26   57 1
    54   27   28 ar
    55   27   58 1
    56   28   29 ar
    57   28   59 1
    58   29   30 ar
    59   29   60 1
    60   30   61 1
    61   31   36 ar
    62   31   32 ar
    63   32   33 ar
    64   32   62 1
    65   33   34 ar
    66   33   63 1
    67   34   35 ar
    68   34   64 1
    69   35   36 ar
    70   35   65 1
    71   36   66 1
@<TRIPOS>MOLECULE
CHEMBL214972
   51    55     0     0     0
SMALL
USER_CHARGES

@<TRIPOS>ATOM
      1 C1         -0.0167    1.3781    0.0096 C.ar      1 <0>        -0.1210
      2 C2          1.1709    2.0855    0.0021 C.ar      1 <0>        -0.1162
      3 C3          2.3773    1.4107   -0.0130 C.ar      1 <0>        -0.1166
      4 C4          2.3960    0.0285   -0.0201 C.ar      1 <0>        -0.0785
      5 C5          1.2084   -0.6789   -0.0117 C.ar      1 <0>        -0.1165
      6 C6          0.0021   -0.0041    0.0020 C.ar      1 <0>        -0.1160
      7 C7          3.7112   -0.7071   -0.0376 C.3       1 <0>        -0.0629
      8 C8          4.1714   -0.9633    1.3989 C.3       1 <0>        -0.0293
      9 C9          4.3517    0.3464    2.1684 C.3       1 <0>        -0.1080
     10 C10         5.4549    1.1664    1.4919 C.3       1 <0>        -0.1659
     11 C11         6.7394    0.3820    1.4450 C.2       1 <0>         0.3949
     12 O1          7.8031    0.9670    1.4246 O.2       1 <0>        -0.4480
     13 C12         6.7135   -1.0833    1.4232 C.2       1 <0>        -0.1490
     14 C13         5.5005   -1.7067    1.4361 C.2       1 <0>         0.0238
     15 C14         5.1799   -3.1187    1.5260 C.ar      1 <0>        -0.0999
     16 C15         5.9714   -4.2406    1.2214 C.ar      1 <0>        -0.0495
     17 C16         5.4169   -5.4761    1.4406 C.ar      1 <0>        -0.1573
     18 C17         4.1314   -5.6255    1.9417 C.ar      1 <0>         0.1308
     19 C18         3.3238   -4.5234    2.2348 C.ar      1 <0>        -0.1371
     20 C19         3.8594   -3.2743    2.0061 C.ar      1 <0>        -0.0510
     21 C20         3.2151   -1.9223    2.1348 C.3       1 <0>        -0.0834
     22 O2          3.6456   -6.8751    2.1521 O.3       1 <0>        -0.4997
     23 C21         7.9712   -1.8662    1.3883 C.ar      1 <0>        -0.0411
     24 C22         8.3121   -2.6895    2.4614 C.ar      1 <0>        -0.0854
     25 C23         9.4832   -3.4166    2.4256 C.ar      1 <0>        -0.1453
     26 C24        10.3226   -3.3299    1.3231 C.ar      1 <0>         0.1085
     27 C25         9.9864   -2.5114    0.2532 C.ar      1 <0>        -0.1434
     28 C26         8.8140   -1.7859    0.2799 C.ar      1 <0>        -0.0780
     29 O3         11.4762   -4.0474    1.2913 O.3       1 <0>        -0.4988
     30 H1         -0.9591    1.9053    0.0259 H         1 <0>         0.1214
     31 H2          1.1563    3.1654    0.0076 H         1 <0>         0.1225
     32 H3          3.3051    1.9634   -0.0196 H         1 <0>         0.1220
     33 H4          1.2231   -1.7588   -0.0176 H         1 <0>         0.1221
     34 H5         -0.9258   -0.5567    0.0082 H         1 <0>         0.1221
     35 H6          3.5884   -1.6586   -0.5549 H         1 <0>         0.0815
     36 H7          4.4573   -0.1052   -0.5563 H         1 <0>         0.0805
     37 H8          3.4183    0.9092    2.1561 H         1 <0>         0.0893
     38 H9          4.6367    0.1294    3.1978 H         1 <0>         0.0764
     39 H10         5.1474    1.4155    0.4763 H         1 <0>         0.1044
     40 H11         5.6151    2.0871    2.0529 H         1 <0>         0.1011
     41 H12         6.9730   -4.1341    0.8319 H         1 <0>         0.1367
     42 H13         5.9977   -6.3585    1.2163 H         1 <0>         0.1301
     43 H14         2.3236   -4.6452    2.6237 H         1 <0>         0.1404
     44 H15         3.1283   -1.6411    3.1843 H         1 <0>         0.0935
     45 H16         2.2350   -1.9215    1.6580 H         1 <0>         0.0974
     46 H17         3.8241   -7.2227    3.0367 H         1 <0>         0.3950
     47 H18         7.6597   -2.7571    3.3194 H         1 <0>         0.1249
     48 H19         9.7479   -4.0540    3.2563 H         1 <0>         0.1304
     49 H20        10.6418   -2.4459   -0.6027 H         1 <0>         0.1313
     50 H21         8.5506   -1.1531   -0.5547 H         1 <0>         0.1257
     51 H22        11.3811   -4.9278    0.9026 H         1 <0>         0.3910
@<TRIPOS>BOND
     1    1    6 ar
     2    1    2 ar
     3    1   30 1
     4    2    3 ar
     5    2   31 1
     6    3    4 ar
     7    3   32 1
     8    4    5 ar
     9    4    7 1
    10    5    6 ar
    11    5   33 1
    12    6   34 1
    13    7    8 1
    14    7   35 1
    15    7   36 1
    16    8   14 1
    17    8   21 1
    18    8    9 1
    19    9   10 1
    20    9   37 1
    21    9   38 1
    22   10   11 1
    23   10   39 1
    24   10   40 1
    25   11   12 2
    26   11   13 1
    27   13   14 2
    28   13   23 1
    29   14   15 1
    30   15   20 ar
    31   15   16 ar
    32   16   17 ar
    33   16   41 1
    34   17   18 ar
    35   17   42 1
    36   18   19 ar
    37   18   22 1
    38   19   20 ar
    39   19   43 1
    40   20   21 1
    41   21   44 1
    42   21   45 1
    43   22   46 1
    44   23   28 ar
    45   23   24 ar
    46   24   25 ar
    47   24   47 1
    48   25   26 ar
    49   25   48 1
    50   26   27 ar
    51   26   29 1
    52   27   28 ar
    53   27   49 1
    54   28   50 1
    55   29   51 1
@<TRIPOS>MOLECULE
CHEMBL214972__1
   51    55     0     0     0
SMALL
USER_CHARGES

@<TRIPOS>ATOM
      1 C1         -0.0167    1.3781    0.0096 C.ar      1 <0>        -0.1209
      2 C2          1.1709    2.0855    0.0021 C.ar      1 <0>        -0.1162
      3 C3          2.3773    1.4107   -0.0130 C.ar      1 <0>        -0.1167
      4 C4          2.3960    0.0285   -0.0201 C.ar      1 <0>        -0.0785
      5 C5          1.2084   -0.6789   -0.0117 C.ar      1 <0>        -0.1165
      6 C6          0.0021   -0.0041    0.0020 C.ar      1 <0>        -0.1159
      7 C7          3.7112   -0.7071   -0.0376 C.3       1 <0>        -0.0627
      8 C8          4.1714   -0.9633    1.3989 C.3       1 <0>        -0.0295
      9 C9          3.1503   -1.8014    2.1703 C.3       1 <0>        -0.1081
     10 C10         3.0285   -3.1714    1.4957 C.3       1 <0>        -0.1658
     11 C11         4.3691   -3.8556    1.4487 C.2       1 <0>         0.3952
     12 O1          4.4273   -5.0681    1.4300 O.2       1 <0>        -0.4479
     13 C12         5.6041   -3.0666    1.4260 C.2       1 <0>        -0.1498
     14 C13         5.5005   -1.7067    1.4361 C.2       1 <0>         0.0234
     15 C14         6.5359   -0.6944    1.5239 C.ar      1 <0>        -0.0999
     16 C15         7.9059   -0.7820    1.2182 C.ar      1 <0>        -0.0621
     17 C16         8.6686    0.3373    1.4353 C.ar      1 <0>        -0.1576
     18 C17         8.1237    1.5114    1.9357 C.ar      1 <0>         0.1298
     19 C18         6.7621    1.6232    2.2299 C.ar      1 <0>        -0.1368
     20 C19         5.9778    0.5129    2.0027 C.ar      1 <0>        -0.0509
     21 C20         4.4886    0.3544    2.1328 C.3       1 <0>        -0.0832
     22 O2          8.9345    2.5795    2.1446 O.3       1 <0>        -0.4992
     23 C21         6.9295   -3.7287    1.3925 C.ar      1 <0>        -0.0386
     24 C22         7.7605   -3.5733    0.2832 C.ar      1 <0>        -0.0934
     25 C23         8.9932   -4.1907    0.2552 C.ar      1 <0>        -0.1470
     26 C24         9.4073   -4.9664    1.3297 C.ar      1 <0>         0.1101
     27 C25         8.5826   -5.1232    2.4356 C.ar      1 <0>        -0.1417
     28 C26         7.3511   -4.5039    2.4725 C.ar      1 <0>        -0.0755
     29 O3         10.6225   -5.5739    1.2987 O.3       1 <0>        -0.4986
     30 H1         -0.9591    1.9053    0.0259 H         1 <0>         0.1214
     31 H2          1.1563    3.1654    0.0076 H         1 <0>         0.1220
     32 H3          3.3051    1.9634   -0.0196 H         1 <0>         0.1217
     33 H4          1.2231   -1.7588   -0.0176 H         1 <0>         0.1221
     34 H5         -0.9258   -0.5567    0.0082 H         1 <0>         0.1226
     35 H6          3.5884   -1.6586   -0.5549 H         1 <0>         0.0807
     36 H7          4.4573   -0.1052   -0.5563 H         1 <0>         0.0812
     37 H8          3.4852   -1.9292    3.1996 H         1 <0>         0.0766
     38 H9          2.1822   -1.3005    2.1580 H         1 <0>         0.0893
     39 H10         2.3282   -3.7890    2.0581 H         1 <0>         0.1014
     40 H11         2.6545   -3.0412    0.4802 H         1 <0>         0.1043
     41 H12         8.3390   -1.6918    0.8295 H         1 <0>         0.1458
     42 H13         9.7244    0.3038    1.2105 H         1 <0>         0.1300
     43 H14         6.3429    2.5393    2.6189 H         1 <0>         0.1405
     44 H15         3.9746    1.1886    1.6553 H         1 <0>         0.0973
     45 H16         4.2044    0.2826    3.1826 H         1 <0>         0.0936
     46 H17         9.0141    3.1680    1.3814 H         1 <0>         0.3945
     47 H18         7.4388   -2.9704   -0.5531 H         1 <0>         0.1286
     48 H19         9.6370   -4.0711   -0.6036 H         1 <0>         0.1325
     49 H20         8.9077   -5.7275    3.2695 H         1 <0>         0.1315
     50 H21         6.7121   -4.6223    3.3351 H         1 <0>         0.1255
     51 H22        11.3398   -5.0374    1.6631 H         1 <0>         0.3916
@<TRIPOS>BOND
     1    1    6 ar
     2    1    2 ar
     3    1   30 1
     4    2    3 ar
     5    2   31 1
     6    3    4 ar
     7    3   32 1
     8    4    5 ar
     9    4    7 1
    10    5    6 ar
    11    5   33 1
    12    6   34 1
    13    7    8 1
    14    7   35 1
    15    7   36 1
    16    8   14 1
    17    8   21 1
    18    8    9 1
    19    9   10 1
    20    9   37 1
    21    9   38 1
    22   10   11 1
    23   10   39 1
    24   10   40 1
    25   11   12 2
    26   11   13 1
    27   13   14 2
    28   13   23 1
    29   14   15 1
    30   15   20 ar
    31   15   16 ar
    32   16   17 ar
    33   16   41 1
    34   17   18 ar
    35   17   42 1
    36   18   19 ar
    37   18   22 1
    38   19   20 ar
    39   19   43 1
    40   20   21 1
    41   21   44 1
    42   21   45 1
    43   22   46 1
    44   23   28 ar
    45   23   24 ar
    46   24   25 ar
    47   24   47 1
    48   25   26 ar
    49   25   48 1
    50   26   27 ar
    51   26   29 1
    52   27   28 ar
    53   27   49 1
    54   28   50 1
    55   29   51 1
@<TRIPOS>MOLECULE
CHEMBL414213
   48    51     0     0     0
SMALL
USER_CHARGES

@<TRIPOS>ATOM
      1 C1         -0.0187    1.5258    0.0104 C.3       1 <0>        -0.1546
      2 C2          0.0021   -0.0041    0.0020 C.3       1 <0>        -0.1143
      3 C3          0.7182   -0.4975   -1.2568 C.3       1 <0>        -0.0458
      4 C4         -0.0717   -0.0587   -2.4865 C.3       1 <0>        -0.0807
      5 C5         -1.3587   -0.8370   -2.5717 C.ar      1 <0>        -0.0511
      6 C6         -2.5104   -0.2403   -3.0337 C.ar      1 <0>        -0.1419
      7 C7         -3.6852   -0.9774   -3.1209 C.ar      1 <0>         0.1094
      8 C8         -3.7028   -2.3148   -2.7456 C.ar      1 <0>        -0.1483
      9 C9         -2.5550   -2.9178   -2.2766 C.ar      1 <0>        -0.0896
     10 C10        -1.3753   -2.1771   -2.1793 C.ar      1 <0>        -0.0523
     11 C11        -0.1485   -2.7896   -1.6376 C.2       1 <0>        -0.0633
     12 C12         0.8430   -1.9949   -1.1982 C.2       1 <0>        -0.0635
     13 C13         2.0712   -2.6063   -0.6589 C.ar      1 <0>        -0.0522
     14 C14         3.2440   -1.8580   -0.5387 C.ar      1 <0>        -0.0896
     15 C15         4.3865   -2.4539   -0.0481 C.ar      1 <0>        -0.1483
     16 C16         4.3715   -3.7925    0.3228 C.ar      1 <0>         0.1095
     17 C17         3.2039   -4.5375    0.2111 C.ar      1 <0>        -0.1420
     18 C18         2.0563   -3.9471   -0.2686 C.ar      1 <0>        -0.0511
     19 C19         0.7696   -4.7261   -0.3512 C.3       1 <0>        -0.0806
     20 C20        -0.0251   -4.2870   -1.5774 C.3       1 <0>        -0.0458
     21 C21         0.6845   -4.7829   -2.8390 C.3       1 <0>        -0.1143
     22 C22         0.7036   -6.3128   -2.8454 C.3       1 <0>        -0.1546
     23 O1          5.5032   -4.3756    0.7973 O.3       1 <0>        -0.4995
     24 O2         -4.8217   -0.3873   -3.5748 O.3       1 <0>        -0.4995
     25 H1          1.0039    1.9031    0.0027 H         1 <0>         0.0549
     26 H2         -0.5459    1.8868   -0.8726 H         1 <0>         0.0574
     27 H3         -0.5289    1.8773    0.9072 H         1 <0>         0.0559
     28 H4          0.5293   -0.3651    0.8851 H         1 <0>         0.0638
     29 H5         -1.0205   -0.3814    0.0098 H         1 <0>         0.0646
     30 H6          1.7145   -0.0571   -1.2970 H         1 <0>         0.0864
     31 H7         -0.2961    1.0054   -2.4121 H         1 <0>         0.0871
     32 H8          0.5218   -0.2409   -3.3823 H         1 <0>         0.0807
     33 H9         -2.5009    0.7989   -3.3274 H         1 <0>         0.1299
     34 H10        -4.6178   -2.8835   -2.8211 H         1 <0>         0.1295
     35 H11        -2.5685   -3.9577   -1.9855 H         1 <0>         0.1304
     36 H12         3.2560   -0.8176   -0.8281 H         1 <0>         0.1305
     37 H13         5.2955   -1.8786    0.0476 H         1 <0>         0.1295
     38 H14         3.1968   -5.5783    0.4995 H         1 <0>         0.1299
     39 H15         0.9947   -5.7899   -0.4273 H         1 <0>         0.0872
     40 H16         0.1789   -4.5456    0.5469 H         1 <0>         0.0808
     41 H17        -1.0218   -4.7262   -1.5333 H         1 <0>         0.0863
     42 H18         0.1535   -4.4225   -3.7200 H         1 <0>         0.0638
     43 H19         1.7074   -4.4067   -2.8521 H         1 <0>         0.0646
     44 H20         1.2091   -6.6661   -3.7441 H         1 <0>         0.0559
     45 H21         1.2346   -6.6732   -1.9644 H         1 <0>         0.0574
     46 H22        -0.3194   -6.6890   -2.8323 H         1 <0>         0.0549
     47 H23         5.6048   -4.3140    1.7570 H         1 <0>         0.3913
     48 H24        -4.9424   -0.4507   -4.5322 H         1 <0>         0.3914
@<TRIPOS>BOND
     1    1    2 1
     2    1   25 1
     3    1   26 1
     4    1   27 1
     5    2    3 1
     6    2   28 1
     7    2   29 1
     8    3   12 1
     9    3    4 1
    10    3   30 1
    11    4    5 1
    12    4   31 1
    13    4   32 1
    14    5   10 ar
    15    5    6 ar
    16    6    7 ar
    17    6   33 1
    18    7    8 ar
    19    7   24 1
    20    8    9 ar
    21    8   34 1
    22    9   10 ar
    23    9   35 1
    24   10   11 1
    25   11   20 1
    26   11   12 2
    27   12   13 1
    28   13   18 ar
    29   13   14 ar
    30   14   15 ar
    31   14   36 1
    32   15   16 ar
    33   15   37 1
    34   16   17 ar
    35   16   23 1
    36   17   18 ar
    37   17   38 1
    38   18   19 1
    39   19   20 1
    40   19   39 1
    41   19   40 1
    42   20   21 1
    43   20   41 1
    44   21   22 1
    45   21   42 1
    46   21   43 1
    47   22   44 1
    48   22   45 1
    49   22   46 1
    50   23   47 1
    51   24   48 1
@<TRIPOS>MOLECULE
CHEMBL414213__1
   48    51     0     0     0
SMALL
USER_CHARGES

@<TRIPOS>ATOM
      1 C1         -0.0187    1.5258    0.0104 C.3       1 <0>        -0.1549
      2 C2          0.0021   -0.0041    0.0020 C.3       1 <0>        -0.1154
      3 C3          0.7182   -0.4975   -1.2568 C.3       1 <0>        -0.0455
      4 C4         -0.0748   -0.0655   -2.4876 C.3       1 <0>        -0.0802
      5 C5         -1.3625   -0.8430   -2.5672 C.ar      1 <0>        -0.0508
      6 C6         -2.5082   -0.2511   -3.0507 C.ar      1 <0>        -0.1425
      7 C7         -3.6860   -0.9835   -3.1321 C.ar      1 <0>         0.1098
      8 C8         -3.7140   -2.3125   -2.7286 C.ar      1 <0>        -0.1487
      9 C9         -2.5731   -2.9110   -2.2379 C.ar      1 <0>        -0.0891
     10 C10        -1.3895   -2.1756   -2.1487 C.ar      1 <0>        -0.0527
     11 C11        -0.1681   -2.7861   -1.5936 C.2       1 <0>        -0.0637
     12 C12         0.8438   -1.9955   -1.1996 C.2       1 <0>        -0.0627
     13 C13         2.0856   -2.6084   -0.6940 C.ar      1 <0>        -0.0526
     14 C14         3.0279   -1.8363   -0.0107 C.ar      1 <0>        -0.0893
     15 C15         4.1767   -2.4272    0.4702 C.ar      1 <0>        -0.1487
     16 C16         4.3956   -3.7854    0.2774 C.ar      1 <0>         0.1099
     17 C17         3.4635   -4.5547   -0.4078 C.ar      1 <0>        -0.1430
     18 C18         2.3167   -3.9705   -0.8987 C.ar      1 <0>        -0.0505
     19 C19         1.3195   -4.7866   -1.6789 C.3       1 <0>        -0.0799
     20 C20        -0.0942   -4.2776   -1.4102 C.3       1 <0>        -0.0451
     21 C21        -0.4916   -4.6288    0.0250 C.3       1 <0>        -0.1156
     22 C22        -0.5392   -6.1498    0.1833 C.3       1 <0>        -0.1547
     23 O1          5.5261   -4.3637    0.7604 O.3       1 <0>        -0.4995
     24 O2         -4.8154   -0.3973   -3.6081 O.3       1 <0>        -0.4996
     25 H1          1.0039    1.9031    0.0027 H         1 <0>         0.0550
     26 H2         -0.5459    1.8868   -0.8726 H         1 <0>         0.0576
     27 H3         -0.5289    1.8773    0.9072 H         1 <0>         0.0561
     28 H4          0.5293   -0.3651    0.8851 H         1 <0>         0.0641
     29 H5         -1.0205   -0.3814    0.0098 H         1 <0>         0.0653
     30 H6          1.7137   -0.0556   -1.2993 H         1 <0>         0.0857
     31 H7         -0.2984    0.9991   -2.4188 H         1 <0>         0.0871
     32 H8          0.5170   -0.2526   -3.3836 H         1 <0>         0.0809
     33 H9         -2.4910    0.7815   -3.3667 H         1 <0>         0.1297
     34 H10        -4.6315   -2.8778   -2.7991 H         1 <0>         0.1294
     35 H11        -2.5947   -3.9441   -1.9238 H         1 <0>         0.1303
     36 H12         2.8569   -0.7807    0.1406 H         1 <0>         0.1305
     37 H13         4.9082   -1.8330    0.9976 H         1 <0>         0.1295
     38 H14         3.6380   -5.6103   -0.5555 H         1 <0>         0.1298
     39 H15         1.5379   -4.7035   -2.7436 H         1 <0>         0.0812
     40 H16         1.3915   -5.8314   -1.3766 H         1 <0>         0.0868
     41 H17        -0.7862   -4.7588   -2.1013 H         1 <0>         0.0853
     42 H18         0.2416   -4.2142    0.7168 H         1 <0>         0.0650
     43 H19        -1.4740   -4.2099    0.2427 H         1 <0>         0.0644
     44 H20        -0.8224   -6.4000    1.2057 H         1 <0>         0.0559
     45 H21        -1.2724   -6.5643   -0.5086 H         1 <0>         0.0552
     46 H22         0.4432   -6.5687   -0.0345 H         1 <0>         0.0574
     47 H23         5.4391   -4.7059    1.6607 H         1 <0>         0.3913
     48 H24        -4.9285   -0.4805   -4.5648 H         1 <0>         0.3914
@<TRIPOS>BOND
     1    1    2 1
     2    1   25 1
     3    1   26 1
     4    1   27 1
     5    2    3 1
     6    2   28 1
     7    2   29 1
     8    3   12 1
     9    3    4 1
    10    3   30 1
    11    4    5 1
    12    4   31 1
    13    4   32 1
    14    5   10 ar
    15    5    6 ar
    16    6    7 ar
    17    6   33 1
    18    7    8 ar
    19    7   24 1
    20    8    9 ar
    21    8   34 1
    22    9   10 ar
    23    9   35 1
    24   10   11 1
    25   11   20 1
    26   11   12 2
    27   12   13 1
    28   13   18 ar
    29   13   14 ar
    30   14   15 ar
    31   14   36 1
    32   15   16 ar
    33   15   37 1
    34   16   17 ar
    35   16   23 1
    36   17   18 ar
    37   17   38 1
    38   18   19 1
    39   19   20 1
    40   19   39 1
    41   19   40 1
    42   20   21 1
    43   20   41 1
    44   21   22 1
    45   21   42 1
    46   21   43 1
    47   22   44 1
    48   22   45 1
    49   22   46 1
    50   23   47 1
    51   24   48 1
@<TRIPOS>MOLECULE
CHEMBL414213__2
   48    51     0     0     0
SMALL
USER_CHARGES

@<TRIPOS>ATOM
      1 C1         -0.0187    1.5258    0.0104 C.3       1 <0>        -0.1548
      2 C2          0.0021   -0.0041    0.0020 C.3       1 <0>        -0.1154
      3 C3          0.7182   -0.4975   -1.2568 C.3       1 <0>        -0.0452
      4 C4          2.1746   -0.0419   -1.2171 C.3       1 <0>        -0.0799
      5 C5          2.9199   -0.7982   -0.1487 C.ar      1 <0>        -0.0508
      6 C6          3.9162   -0.1840    0.5772 C.ar      1 <0>        -0.1427
      7 C7          4.6057   -0.8970    1.5501 C.ar      1 <0>         0.1098
      8 C8          4.2964   -2.2292    1.7936 C.ar      1 <0>        -0.1487
      9 C9          3.2969   -2.8502    1.0753 C.ar      1 <0>        -0.0890
     10 C10         2.5967   -2.1340    0.1024 C.ar      1 <0>        -0.0528
     11 C11         1.5005   -2.7687   -0.6513 C.2       1 <0>        -0.0630
     12 C12         0.6282   -1.9977   -1.3214 C.2       1 <0>        -0.0634
     13 C13        -0.4362   -2.6347   -2.1181 C.ar      1 <0>        -0.0526
     14 C14        -1.5201   -1.8838   -2.5787 C.ar      1 <0>        -0.0894
     15 C15        -2.5158   -2.4973   -3.3085 C.ar      1 <0>        -0.1487
     16 C16        -2.4421   -3.8569   -3.5834 C.ar      1 <0>         0.1097
     17 C17        -1.3621   -4.6053   -3.1322 C.ar      1 <0>        -0.1427
     18 C18        -0.3586   -3.9984   -2.4096 C.ar      1 <0>        -0.0506
     19 C19         0.8373   -4.7916   -1.9515 C.3       1 <0>        -0.0801
     20 C20         1.3288   -4.2627   -0.6066 C.3       1 <0>        -0.0455
     21 C21         0.3106   -4.6204    0.4779 C.3       1 <0>        -0.1155
     22 C22         0.2237   -6.1418    0.6140 C.3       1 <0>        -0.1548
     23 O1         -3.4307   -4.4575   -4.2961 O.3       1 <0>        -0.4996
     24 O2          5.5872   -0.2888    2.2660 O.3       1 <0>        -0.4995
     25 H1          1.0039    1.9031    0.0027 H         1 <0>         0.0574
     26 H2         -0.5459    1.8868   -0.8726 H         1 <0>         0.0552
     27 H3         -0.5289    1.8773    0.9072 H         1 <0>         0.0559
     28 H4          0.5293   -0.3651    0.8851 H         1 <0>         0.0649
     29 H5         -1.0205   -0.3814    0.0098 H         1 <0>         0.0644
     30 H6          0.2337   -0.0711   -2.1352 H         1 <0>         0.0855
     31 H7          2.6393   -0.2302   -2.1849 H         1 <0>         0.0810
     32 H8          2.2143    1.0254   -0.9995 H         1 <0>         0.0869
     33 H9          4.1610    0.8512    0.3906 H         1 <0>         0.1297
     34 H10         4.8403   -2.7797    2.5470 H         1 <0>         0.1295
     35 H11         3.0567   -3.8861    1.2640 H         1 <0>         0.1304
     36 H12        -1.5778   -0.8269   -2.3641 H         1 <0>         0.1303
     37 H13        -3.3550   -1.9197   -3.6670 H         1 <0>         0.1294
     38 H14        -1.3093   -5.6622   -3.3479 H         1 <0>         0.1298
     39 H15         0.5580   -5.8401   -1.8478 H         1 <0>         0.0870
     40 H16         1.6349   -4.7022   -2.6890 H         1 <0>         0.0811
     41 H17         2.2855   -4.7267   -0.3666 H         1 <0>         0.0855
     42 H18         0.6246   -4.1880    1.4279 H         1 <0>         0.0641
     43 H19        -0.6669   -4.2237    0.2036 H         1 <0>         0.0654
     44 H20        -0.5018   -6.3966    1.3866 H         1 <0>         0.0561
     45 H21        -0.0903   -6.5742   -0.3360 H         1 <0>         0.0576
     46 H22         1.2011   -6.5385    0.8884 H         1 <0>         0.0551
     47 H23        -3.2829   -4.4564   -5.2518 H         1 <0>         0.3914
     48 H24         5.2766    0.1361    3.0772 H         1 <0>         0.3912
@<TRIPOS>BOND
     1    1    2 1
     2    1   25 1
     3    1   26 1
     4    1   27 1
     5    2    3 1
     6    2   28 1
     7    2   29 1
     8    3   12 1
     9    3    4 1
    10    3   30 1
    11    4    5 1
    12    4   31 1
    13    4   32 1
    14    5   10 ar
    15    5    6 ar
    16    6    7 ar
    17    6   33 1
    18    7    8 ar
    19    7   24 1
    20    8    9 ar
    21    8   34 1
    22    9   10 ar
    23    9   35 1
    24   10   11 1
    25   11   20 1
    26   11   12 2
    27   12   13 1
    28   13   18 ar
    29   13   14 ar
    30   14   15 ar
    31   14   36 1
    32   15   16 ar
    33   15   37 1
    34   16   17 ar
    35   16   23 1
    36   17   18 ar
    37   17   38 1
    38   18   19 1
    39   19   20 1
    40   19   39 1
    41   19   40 1
    42   20   21 1
    43   20   41 1
    44   21   22 1
    45   21   42 1
    46   21   43 1
    47   22   44 1
    48   22   45 1
    49   22   46 1
    50   23   47 1
    51   24   48 1
@<TRIPOS>MOLECULE
CHEMBL393179
   79    83     0     0     0
SMALL
USER_CHARGES

@<TRIPOS>ATOM
      1 C1         -0.0522    1.7216   -0.3816 C.3       1 <0>        -0.1664
      2 C2          0.0211    0.1935   -0.3645 C.3       1 <0>         0.1433
      3 H1         -0.9851   -0.2177   -0.2832 H         1 <0>         0.0883
      4 C3          0.8572   -0.2636    0.8325 C.3       1 <0>        -0.1236
      5 C4          0.8276   -1.7907    0.9219 C.3       1 <0>        -0.0758
      6 C5          1.6511   -2.2410    2.1010 C.ar      1 <0>        -0.0951
      7 C6          2.9996   -2.5015    1.9417 C.ar      1 <0>        -0.1006
      8 C7          3.7566   -2.9148    3.0209 C.ar      1 <0>        -0.1425
      9 C8          3.1627   -3.0679    4.2653 C.ar      1 <0>         0.1032
     10 C9          1.8096   -2.8054    4.4226 C.ar      1 <0>        -0.1426
     11 C10         1.0581   -2.3873    3.3414 C.ar      1 <0>        -0.1010
     12 O1          3.9052   -3.4748    5.3284 O.3       1 <0>        -0.5007
     13 N1          0.6432   -0.2794   -1.6037 N.am      1 <0>        -0.7285
     14 C11        -0.1070   -0.4567   -2.7093 C.2       1 <0>         0.5133
     15 O2         -1.2970   -0.2247   -2.6783 O.2       1 <0>        -0.5261
     16 C12         0.5329   -0.9432   -3.9840 C.3       1 <0>        -0.0701
     17 C13        -0.5152   -1.0563   -5.0609 C.2       1 <0>        -0.1417
     18 C14        -1.3331   -2.2309   -5.3589 C.ar      1 <0>        -0.0489
     19 C15        -1.4180   -3.5143   -4.8100 C.ar      1 <0>        -0.0946
     20 C16        -2.3186   -4.4206   -5.3315 C.ar      1 <0>         0.0851
     21 C17        -3.1390   -4.0610   -6.3980 C.ar      1 <0>        -0.1795
     22 C18        -3.0641   -2.8003   -6.9471 C.ar      1 <0>        -0.0822
     23 C19        -2.1637   -1.8711   -6.4366 C.ar      1 <0>         0.0848
     24 N2         -1.8669   -0.5652   -6.7675 N.pl3     1 <0>        -0.5838
     25 H2         -2.2913   -0.0594   -7.4781 H         1 <0>         0.4201
     26 C20        -0.8833   -0.0860   -5.9339 C.2       1 <0>         0.1608
     27 C21        -0.3118    1.2772   -5.9845 C.ar      1 <0>        -0.0504
     28 C22        -0.1137    1.9981   -4.8062 C.ar      1 <0>        -0.0918
     29 C23         0.4202    3.2691   -4.8603 C.ar      1 <0>        -0.1170
     30 C24         0.7590    3.8291   -6.0792 C.ar      1 <0>        -0.1033
     31 C25         0.5647    3.1198   -7.2511 C.ar      1 <0>        -0.1166
     32 C26         0.0369    1.8457   -7.2103 C.ar      1 <0>        -0.1028
     33 O3         -2.4051   -5.6702   -4.8020 O.3       1 <0>        -0.3294
     34 C27        -3.3581   -6.5588   -5.3888 C.3       1 <0>         0.0275
     35 C28        -3.3111   -7.9066   -4.6661 C.3       1 <0>        -0.0010
     36 N3         -3.7183   -7.7260   -3.2662 N.4       1 <0>        -0.3839
     37 C29        -3.5243   -8.9842   -2.5356 C.3       1 <0>        -0.0069
     38 C30        -3.8701   -8.7796   -1.0591 C.3       1 <0>        -0.1468
     39 C31        -5.3316   -8.3380   -0.9393 C.3       1 <0>        -0.1385
     40 C32        -5.5395   -7.0657   -1.7658 C.3       1 <0>        -0.1457
     41 C33        -5.1318   -7.3338   -3.2161 C.3       1 <0>        -0.0129
     42 H3          0.9540    2.1328   -0.4630 H         1 <0>         0.0590
     43 H4         -0.6479    2.0473   -1.2344 H         1 <0>         0.0609
     44 H5         -0.5151    2.0735    0.5404 H         1 <0>         0.0671
     45 H6          1.8862    0.0731    0.7068 H         1 <0>         0.0727
     46 H7          0.4449    0.1619    1.7474 H         1 <0>         0.0823
     47 H8         -0.2014   -2.1274    1.0477 H         1 <0>         0.0715
     48 H9          1.2399   -2.2163    0.0071 H         1 <0>         0.0722
     49 H10         3.4615   -2.3822    0.9728 H         1 <0>         0.1253
     50 H11         4.8098   -3.1189    2.8959 H         1 <0>         0.1293
     51 H12         1.3450   -2.9238    5.3903 H         1 <0>         0.1290
     52 H13         0.0056   -2.1786    3.4643 H         1 <0>         0.1254
     53 H14         4.3061   -2.7506    5.8284 H         1 <0>         0.3936
     54 H15         1.5950   -0.4650   -1.6285 H         1 <0>         0.4001
     55 H16         1.3012   -0.2364   -4.2976 H         1 <0>         0.1033
     56 H17         0.9856   -1.9200   -3.8136 H         1 <0>         0.1015
     57 H18        -0.7822   -3.7946   -3.9832 H         1 <0>         0.1289
     58 H19        -3.8404   -4.7779   -6.7986 H         1 <0>         0.1293
     59 H20        -3.7047   -2.5329   -7.7744 H         1 <0>         0.1292
     60 H21        -0.3781    1.5622   -3.8541 H         1 <0>         0.1308
     61 H22         0.5737    3.8283   -3.9491 H         1 <0>         0.1284
     62 H23         1.1766    4.8244   -6.1162 H         1 <0>         0.1285
     63 H24         0.8309    3.5627   -8.1995 H         1 <0>         0.1294
     64 H25        -0.1101    1.2913   -8.1254 H         1 <0>         0.1227
     65 H26        -4.3570   -6.1322   -5.2975 H         1 <0>         0.0841
     66 H27        -3.1195   -6.7031   -6.4425 H         1 <0>         0.1075
     67 H28        -3.9905   -8.6049   -5.1549 H         1 <0>         0.1474
     68 H29        -2.2961   -8.3024   -4.7011 H         1 <0>         0.1418
     69 H30        -4.1727   -9.7523   -2.9572 H         1 <0>         0.1286
     70 H31        -2.4845   -9.2989   -2.6245 H         1 <0>         0.1306
     71 H32        -3.7272   -9.7154   -0.5188 H         1 <0>         0.1125
     72 H33        -3.2221   -8.0119   -0.6365 H         1 <0>         0.0879
     73 H34        -5.9828   -9.1272   -1.3150 H         1 <0>         0.0817
     74 H35        -5.5669   -8.1363    0.1057 H         1 <0>         0.0941
     75 H36        -6.5898   -6.7763   -1.7305 H         1 <0>         0.1118
     76 H37        -4.9261   -6.2623   -1.3578 H         1 <0>         0.0882
     77 H38        -5.2788   -6.4299   -3.8074 H         1 <0>         0.1282
     78 H39        -5.7460   -8.1370   -3.6231 H         1 <0>         0.1295
     79 H40        -3.1546   -7.0037   -2.8436 H         1 <0>         0.4300
@<TRIPOS>BOND
     1    1    2 1
     2    1   42 1
     3    1   43 1
     4    1   44 1
     5    2    3 1
     6    2    4 1
     7    2   13 1
     8    4    5 1
     9    4   45 1
    10    4   46 1
    11    5    6 1
    12    5   47 1
    13    5   48 1
    14    6   11 ar
    15    6    7 ar
    16    7    8 ar
    17    7   49 1
    18    8    9 ar
    19    8   50 1
    20    9   10 ar
    21    9   12 1
    22   10   11 ar
    23   10   51 1
    24   11   52 1
    25   12   53 1
    26   13   14 am
    27   13   54 1
    28   14   15 2
    29   14   16 1
    30   16   17 1
    31   16   55 1
    32   16   56 1
    33   17   26 2
    34   17   18 1
    35   18   23 ar
    36   18   19 ar
    37   19   20 ar
    38   19   57 1
    39   20   21 ar
    40   20   33 1
    41   21   22 ar
    42   21   58 1
    43   22   23 ar
    44   22   59 1
    45   23   24 1
    46   24   25 1
    47   24   26 1
    48   26   27 1
    49   27   32 ar
    50   27   28 ar
    51   28   29 ar
    52   28   60 1
    53   29   30 ar
    54   29   61 1
    55   30   31 ar
    56   30   62 1
    57   31   32 ar
    58   31   63 1
    59   32   64 1
    60   33   34 1
    61   34   35 1
    62   34   65 1
    63   34   66 1
    64   35   36 1
    65   35   67 1
    66   35   68 1
    67   36   41 1
    68   36   37 1
    69   36   79 1
    70   37   38 1
    71   37   69 1
    72   37   70 1
    73   38   39 1
    74   38   71 1
    75   38   72 1
    76   39   40 1
    77   39   73 1
    78   39   74 1
    79   40   41 1
    80   40   75 1
    81   40   76 1
    82   41   77 1
    83   41   78 1
@<TRIPOS>MOLECULE
CHEMBL362425
   64    69     0     0     0
SMALL
USER_CHARGES

@<TRIPOS>ATOM
      1 C1         -1.4946   -0.7819    2.4959 C.ar      1 <0>        -0.0733
      2 C2         -1.2375   -1.0423    3.8238 C.ar      1 <0>        -0.1465
      3 C3         -1.1220   -2.3542    4.2671 C.ar      1 <0>         0.1241
      4 C4         -1.2652   -3.4090    3.3739 C.ar      1 <0>        -0.1388
      5 C5         -1.5224   -3.1582    2.0442 C.ar      1 <0>        -0.0716
      6 C6         -1.6394   -1.8399    1.5936 C.ar      1 <0>        -0.0375
      7 C7         -1.9146   -1.5664    0.1713 C.2       1 <0>        -0.0546
      8 C8         -1.3204   -2.1376   -0.9463 C.2       1 <0>        -0.1541
      9 C9         -1.7732   -1.6929   -2.2668 C.ar      1 <0>        -0.0717
     10 C10        -1.3225   -2.1238   -3.5351 C.ar      1 <0>        -0.0572
     11 C11        -1.8556   -1.6007   -4.6836 C.ar      1 <0>        -0.1382
     12 C12        -2.8547   -0.6324   -4.6387 C.ar      1 <0>         0.1343
     13 C13        -3.3173   -0.1904   -3.4098 C.ar      1 <0>        -0.1022
     14 C14        -2.7837   -0.7133   -2.2506 C.ar      1 <0>        -0.1018
     15 S1         -3.0951   -0.4290   -0.5269 S.3       1 <0>         0.0845
     16 O1         -3.3710   -0.1250   -5.7893 O.3       1 <0>        -0.4913
     17 C15        -0.2745   -3.1514   -0.8094 C.2       1 <0>         0.4653
     18 O2         -0.5631   -4.3341   -0.8536 O.2       1 <0>        -0.4486
     19 C16         1.1306   -2.7412   -0.6177 C.ar      1 <0>        -0.2257
     20 C17         1.4788   -1.3884   -0.6714 C.ar      1 <0>        -0.0076
     21 C18         2.7895   -1.0090   -0.4919 C.ar      1 <0>        -0.2133
     22 C19         3.7681   -1.9709   -0.2570 C.ar      1 <0>         0.2563
     23 C20         3.4245   -3.3190   -0.2030 C.ar      1 <0>        -0.2138
     24 C21         2.1148   -3.7042   -0.3764 C.ar      1 <0>        -0.0034
     25 N1          5.0921   -1.5844   -0.0764 N.pl3     1 <0>        -0.6193
     26 C22         5.4525   -0.1615   -0.0033 C.3       1 <0>         0.1023
     27 C23         6.2133    0.0848    1.3054 C.3       1 <0>         0.0805
     28 N2          7.2766   -0.9224    1.4271 N.am      1 <0>        -0.6050
     29 C24         6.9162   -2.3453    1.3541 C.3       1 <0>         0.0959
     30 C25         6.1546   -2.5916    0.0510 C.3       1 <0>         0.1026
     31 C26         8.5594   -0.5478    1.6022 C.2       1 <0>         0.5629
     32 O3          9.4418   -1.3833    1.6018 O.2       1 <0>        -0.5206
     33 C27         8.8937    0.8825    1.7951 C.ar      1 <0>        -0.0839
     34 C28         8.0990    1.7038    2.6006 C.ar      1 <0>        -0.1492
     35 C29         8.4478    3.0318    2.7533 C.ar      1 <0>         0.1008
     36 N3          9.5118    3.5256    2.1520 N.ar      1 <0>        -0.4685
     37 C30        10.2876    2.7864    1.3843 C.ar      1 <0>         0.1037
     38 C31        10.0160    1.4472    1.1814 C.ar      1 <0>        -0.1214
     39 O4         -0.8681   -2.6061    5.5770 O.3       1 <0>        -0.4974
     40 H1         -1.5885    0.2379    2.1530 H         1 <0>         0.1335
     41 H2         -1.1251   -0.2255    4.5214 H         1 <0>         0.1361
     42 H3         -1.1744   -4.4270    3.7228 H         1 <0>         0.1362
     43 H4         -1.6332   -3.9786    1.3506 H         1 <0>         0.1342
     44 H5         -0.5483   -2.8740   -3.5997 H         1 <0>         0.1296
     45 H6         -1.4941   -1.9456   -5.6411 H         1 <0>         0.1382
     46 H7         -4.0918    0.5607   -3.3598 H         1 <0>         0.1408
     47 H8         -4.1353   -0.6125   -6.1260 H         1 <0>         0.3969
     48 H9          0.7202   -0.6417   -0.8539 H         1 <0>         0.1261
     49 H10         3.0592    0.0359   -0.5336 H         1 <0>         0.1292
     50 H11         4.1860   -4.0629   -0.0209 H         1 <0>         0.1308
     51 H12         1.8482   -4.7497   -0.3303 H         1 <0>         0.1335
     52 H13         6.0874    0.0990   -0.8501 H         1 <0>         0.0728
     53 H14         4.5479    0.4464   -0.0205 H         1 <0>         0.1017
     54 H15         6.6537    1.0817    1.2905 H         1 <0>         0.1055
     55 H16         5.5283   -0.0027    2.1488 H         1 <0>         0.0816
     56 H17         7.8208   -2.9531    1.3713 H         1 <0>         0.1083
     57 H18         6.2813   -2.6057    2.2009 H         1 <0>         0.0782
     58 H19         5.7136   -3.5883    0.0696 H         1 <0>         0.1020
     59 H20         6.8407   -2.5082   -0.7919 H         1 <0>         0.0737
     60 H21         7.2255    1.3061    3.0957 H         1 <0>         0.1432
     61 H22         7.8403    3.6742    3.3734 H         1 <0>         0.1648
     62 H23        11.1494    3.2329    0.9107 H         1 <0>         0.1660
     63 H24        10.6585    0.8464    0.5548 H         1 <0>         0.1451
     64 H25        -1.6581   -2.6244    6.1344 H         1 <0>         0.3953
@<TRIPOS>BOND
     1    1    6 ar
     2    1    2 ar
     3    1   40 1
     4    2    3 ar
     5    2   41 1
     6    3    4 ar
     7    3   39 1
     8    4    5 ar
     9    4   42 1
    10    5    6 ar
    11    5   43 1
    12    6    7 1
    13    7   15 1
    14    7    8 2
    15    8    9 1
    16    8   17 1
    17    9   14 ar
    18    9   10 ar
    19   10   11 ar
    20   10   44 1
    21   11   12 ar
    22   11   45 1
    23   12   13 ar
    24   12   16 1
    25   13   14 ar
    26   13   46 1
    27   14   15 1
    28   16   47 1
    29   17   18 2
    30   17   19 1
    31   19   24 ar
    32   19   20 ar
    33   20   21 ar
    34   20   48 1
    35   21   22 ar
    36   21   49 1
    37   22   23 ar
    38   22   25 1
    39   23   24 ar
    40   23   50 1
    41   24   51 1
    42   25   30 1
    43   25   26 1
    44   26   27 1
    45   26   52 1
    46   26   53 1
    47   27   28 1
    48   27   54 1
    49   27   55 1
    50   28   29 1
    51   28   31 am
    52   29   30 1
    53   29   56 1
    54   29   57 1
    55   30   58 1
    56   30   59 1
    57   31   32 2
    58   31   33 1
    59   33   38 ar
    60   33   34 ar
    61   34   35 ar
    62   34   60 1
    63   35   36 ar
    64   35   61 1
    65   36   37 ar
    66   37   38 ar
    67   37   62 1
    68   38   63 1
    69   39   64 1
@<TRIPOS>MOLECULE
CHEMBL347560
   73    76     0     0     0
SMALL
USER_CHARGES

@<TRIPOS>ATOM
      1 C1         -0.0178    1.4608    0.0101 C.3       1 <0>         0.1025
      2 N1          0.0021   -0.0041    0.0020 N.pl3     1 <0>        -0.5787
      3 C2          0.0241   -0.7433    1.2666 C.3       1 <0>         0.1334
      4 C3         -1.4105   -1.0203    1.7205 C.3       1 <0>        -0.1262
      5 C4         -1.3875   -1.7923    3.0413 C.3       1 <0>        -0.0774
      6 C5         -2.8005   -2.0651    3.4884 C.ar      1 <0>        -0.0743
      7 C6         -3.4587   -1.1539    4.2931 C.ar      1 <0>        -0.1053
      8 C7         -4.7547   -1.4036    4.7034 C.ar      1 <0>        -0.1084
      9 C8         -5.3933   -2.5657    4.3087 C.ar      1 <0>        -0.0396
     10 C9         -4.7340   -3.4773    3.5034 C.ar      1 <0>        -0.1080
     11 C10        -3.4400   -3.2238    3.0890 C.ar      1 <0>        -0.1026
     12 Cl1        -7.0209   -2.8802    4.8242 Cl        1 <0>        -0.0714
     13 C11         0.0000   -0.6876   -1.1969 C.ar      1 <0>         0.6529
     14 N2          0.0126   -2.0171   -1.2042 N.ar      1 <0>        -0.6725
     15 C12         0.0106   -2.6754   -2.3589 C.ar      1 <0>         0.6536
     16 N3         -0.0039   -2.0045   -3.5066 N.ar      1 <0>        -0.6824
     17 C13        -0.0169   -0.6754   -3.4993 C.ar      1 <0>         0.6570
     18 N4         -0.0200   -0.0169   -2.3443 N.ar      1 <0>        -0.6777
     19 N5         -0.0315    0.0211   -4.6907 N.pl3     1 <0>        -0.5751
     20 C14        -0.0399    1.4918   -4.7054 C.3       1 <0>         0.1344
     21 C15         1.0813    1.9758   -5.6311 C.3       1 <0>         0.0417
     22 N6          0.9335    1.3407   -6.9474 N.3       1 <0>        -0.5283
     23 C16         1.0820   -0.1179   -6.8550 C.3       1 <0>         0.0378
     24 C17        -0.0330   -0.6876   -5.9795 C.3       1 <0>         0.1347
     25 C18         1.8836    1.9064   -7.9145 C.3       1 <0>         0.0542
     26 C19         1.5387    1.4081   -9.3194 C.3       1 <0>         0.0792
     27 O1          0.2598    1.9162   -9.7044 O.3       1 <0>        -0.5588
     28 N7          0.0241   -4.0554   -2.3664 N.pl3     1 <0>        -0.6914
     29 C20         0.0405   -4.7947   -1.1018 C.3       1 <0>         0.1471
     30 C21         0.0532   -6.2974   -1.3895 C.3       1 <0>        -0.0935
     31 C22         0.0701   -7.0579   -0.0886 C.ar      1 <0>        -0.0894
     32 C23         1.2759   -7.3895    0.5013 C.ar      1 <0>        -0.0954
     33 C24         1.2941   -8.0869    1.6936 C.ar      1 <0>        -0.1430
     34 C25         0.1013   -8.4543    2.2993 C.ar      1 <0>         0.1048
     35 C26        -1.1072   -8.1200    1.7056 C.ar      1 <0>        -0.1425
     36 C27        -1.1201   -7.4179    0.5159 C.ar      1 <0>        -0.0954
     37 O2          0.1166   -9.1409    3.4720 O.3       1 <0>        -0.5003
     38 H1          1.0048    1.8381    0.0023 H         1 <0>         0.0523
     39 H2         -0.5450    1.8219   -0.8730 H         1 <0>         0.0808
     40 H3         -0.5280    1.8123    0.9069 H         1 <0>         0.0684
     41 H4          0.5496   -1.6879    1.1262 H         1 <0>         0.0896
     42 H5          0.5371   -0.1514    2.0246 H         1 <0>         0.0767
     43 H6         -1.9359   -0.0757    1.8610 H         1 <0>         0.0630
     44 H7         -1.9235   -1.6122    0.9626 H         1 <0>         0.0693
     45 H8         -0.8620   -2.7369    2.9008 H         1 <0>         0.0778
     46 H9         -0.8745   -1.2004    3.7993 H         1 <0>         0.0757
     47 H10        -2.9600   -0.2469    4.6014 H         1 <0>         0.1311
     48 H11        -5.2687   -0.6918    5.3324 H         1 <0>         0.1328
     49 H12        -5.2319   -4.3848    3.1952 H         1 <0>         0.1322
     50 H13        -2.9270   -3.9331    2.4564 H         1 <0>         0.1307
     51 H14        -1.0007    1.8488   -5.0762 H         1 <0>         0.0744
     52 H15         0.1296    1.8690   -3.6968 H         1 <0>         0.1021
     53 H16         1.0204    3.0586   -5.7408 H         1 <0>         0.0893
     54 H17         2.0473    1.7068   -5.2039 H         1 <0>         0.0365
     55 H18         1.0217   -0.5535   -7.8524 H         1 <0>         0.0891
     56 H19         2.0480   -0.3577   -6.4107 H         1 <0>         0.0359
     57 H20         0.1411   -1.7507   -5.8130 H         1 <0>         0.1019
     58 H21        -0.9931   -0.5442   -6.4752 H         1 <0>         0.0737
     59 H22         1.8228    2.9944   -7.8898 H         1 <0>         0.0848
     60 H23         2.8951    1.5930   -7.6560 H         1 <0>         0.0477
     61 H24         2.2947    1.7553  -10.0238 H         1 <0>         0.0487
     62 H25         1.5126    0.3184   -9.3223 H         1 <0>         0.0458
     63 H26        -0.0239    1.6399  -10.5866 H         1 <0>         0.3757
     64 H27         0.0226   -4.5359   -3.2091 H         1 <0>         0.4142
     65 H28         0.9321   -4.5258   -0.5353 H         1 <0>         0.0690
     66 H29        -0.8477   -4.5432   -0.5223 H         1 <0>         0.0694
     67 H30        -0.8384   -6.5663   -1.9560 H         1 <0>         0.0812
     68 H31         0.9415   -6.5489   -1.9690 H         1 <0>         0.0809
     69 H32         2.2042   -7.1033    0.0294 H         1 <0>         0.1269
     70 H33         2.2362   -8.3464    2.1536 H         1 <0>         0.1289
     71 H34        -2.0371   -8.4048    2.1752 H         1 <0>         0.1290
     72 H35        -2.0606   -7.1535    0.0556 H         1 <0>         0.1270
     73 H36         0.1129   -8.5773    4.2578 H         1 <0>         0.3918
@<TRIPOS>BOND
     1    1    2 1
     2    1   38 1
     3    1   39 1
     4    1   40 1
     5    2    3 1
     6    2   13 1
     7    3    4 1
     8    3   41 1
     9    3   42 1
    10    4    5 1
    11    4   43 1
    12    4   44 1
    13    5    6 1
    14    5   45 1
    15    5   46 1
    16    6   11 ar
    17    6    7 ar
    18    7    8 ar
    19    7   47 1
    20    8    9 ar
    21    8   48 1
    22    9   10 ar
    23    9   12 1
    24   10   11 ar
    25   10   49 1
    26   11   50 1
    27   13   18 ar
    28   13   14 ar
    29   14   15 ar
    30   15   16 ar
    31   15   28 1
    32   16   17 ar
    33   17   18 ar
    34   17   19 1
    35   19   24 1
    36   19   20 1
    37   20   21 1
    38   20   51 1
    39   20   52 1
    40   21   22 1
    41   21   53 1
    42   21   54 1
    43   22   23 1
    44   22   25 1
    45   23   24 1
    46   23   55 1
    47   23   56 1
    48   24   57 1
    49   24   58 1
    50   25   26 1
    51   25   59 1
    52   25   60 1
    53   26   27 1
    54   26   61 1
    55   26   62 1
    56   27   63 1
    57   28   29 1
    58   28   64 1
    59   29   30 1
    60   29   65 1
    61   29   66 1
    62   30   31 1
    63   30   67 1
    64   30   68 1
    65   31   36 ar
    66   31   32 ar
    67   32   33 ar
    68   32   69 1
    69   33   34 ar
    70   33   70 1
    71   34   35 ar
    72   34   37 1
    73   35   36 ar
    74   35   71 1
    75   36   72 1
    76   37   73 1
@<TRIPOS>MOLECULE
CHEMBL347560__1
   74    77     0     0     0
SMALL
USER_CHARGES

@<TRIPOS>ATOM
      1 C1          0.0184    1.4610    0.0098 C.3       1 <0>         0.0783
      2 N1          0.0256   -0.0040    0.0018 N.pl3     1 <0>        -0.5284
      3 C2          0.0476   -0.7433    1.2664 C.3       1 <0>         0.1106
      4 C3         -1.3870   -1.0078    1.7276 C.3       1 <0>        -0.1285
      5 C4         -1.3640   -1.7799    3.0483 C.3       1 <0>        -0.0763
      6 C5         -2.7771   -2.0404    3.5025 C.ar      1 <0>        -0.0840
      7 C6         -3.4233   -1.1235    4.3104 C.ar      1 <0>        -0.1033
      8 C7         -4.7193   -1.3619    4.7274 C.ar      1 <0>        -0.1065
      9 C8         -5.3699   -2.5185    4.3360 C.ar      1 <0>        -0.0360
     10 C9         -4.7226   -3.4358    3.5275 C.ar      1 <0>        -0.1084
     11 C10        -3.4286   -3.1936    3.1066 C.ar      1 <0>        -0.1043
     12 Cl1        -6.9975   -2.8188    4.8598 Cl        1 <0>        -0.0632
     13 C11         0.0116   -0.6876   -1.1970 C.ar      1 <0>         0.6717
     14 N2          0.0126   -2.0171   -1.2042 N.ar      1 <0>        -0.6167
     15 C12        -0.0010   -2.6755   -2.3588 C.ar      1 <0>         0.6929
     16 N3         -0.0155   -2.0046   -3.5065 N.ar      1 <0>        -0.6396
     17 C13        -0.0169   -0.6754   -3.4993 C.ar      1 <0>         0.6864
     18 N4         -0.0084   -0.0168   -2.3444 N.ar      1 <0>        -0.6174
     19 N5         -0.0315    0.0211   -4.6907 N.pl3     1 <0>        -0.5539
     20 C14        -0.1499    1.4870   -4.7068 C.3       1 <0>         0.1230
     21 C15         0.9712    2.0564   -5.5826 C.3       1 <0>         0.0368
     22 N6          0.9297    1.4153   -6.9037 N.3       1 <0>        -0.5278
     23 C16         1.1833   -0.0281   -6.8038 C.3       1 <0>         0.0349
     24 C17         0.0770   -0.6824   -5.9778 C.3       1 <0>         0.1066
     25 C18         1.8761    2.0534   -7.8285 C.3       1 <0>         0.0542
     26 C19         1.6318    1.5342   -9.2468 C.3       1 <0>         0.0777
     27 O1          0.3364    1.9457   -9.6881 O.3       1 <0>        -0.5604
     28 N7          0.0005   -4.0556   -2.3662 N.pl3     1 <0>        -0.6642
     29 C20        -0.0144   -4.7812   -3.6388 C.3       1 <0>         0.0942
     30 C21        -0.0093   -6.2870   -3.3673 C.3       1 <0>        -0.0843
     31 C22        -0.0246   -7.0334   -4.6764 C.ar      1 <0>        -0.1113
     32 C23        -1.2296   -7.3717   -5.2639 C.ar      1 <0>        -0.0932
     33 C24        -1.2464   -8.0564   -6.4636 C.ar      1 <0>        -0.1426
     34 C25        -0.0527   -8.4042   -7.0792 C.ar      1 <0>         0.1188
     35 C26         1.1551   -8.0632   -6.4879 C.ar      1 <0>        -0.1430
     36 C27         1.1664   -7.3739   -5.2907 C.ar      1 <0>        -0.0937
     37 O2         -0.0665   -9.0781   -8.2592 O.3       1 <0>        -0.4970
     38 H1          1.0442    1.8294   -0.0032 H         1 <0>         0.0766
     39 H2         -0.5101    1.8266   -0.8707 H         1 <0>         0.0923
     40 H3         -0.4841    1.8170    0.9091 H         1 <0>         0.0917
     41 H4          0.5642   -1.6924    1.1234 H         1 <0>         0.1013
     42 H5          0.5696   -0.1557    2.0217 H         1 <0>         0.1001
     43 H6         -1.9035   -0.0586    1.8705 H         1 <0>         0.0721
     44 H7         -1.9090   -1.5953    0.9723 H         1 <0>         0.0707
     45 H8         -0.8475   -2.7290    2.9053 H         1 <0>         0.0800
     46 H9         -0.8420   -1.1923    3.8036 H         1 <0>         0.0807
     47 H10        -2.9152   -0.2208    4.6161 H         1 <0>         0.1321
     48 H11        -5.2239   -0.6456    5.3588 H         1 <0>         0.1357
     49 H12        -5.2299   -4.3389    3.2219 H         1 <0>         0.1340
     50 H13        -2.9249   -3.9073    2.4715 H         1 <0>         0.1293
     51 H14        -1.1176    1.7717   -5.1199 H         1 <0>         0.1017
     52 H15        -0.0538    1.8733   -3.6921 H         1 <0>         0.1177
     53 H16         0.8340    3.1318   -5.6957 H         1 <0>         0.1068
     54 H17         1.9351    1.8597   -5.1131 H         1 <0>         0.0459
     55 H18         1.1999   -0.4645   -7.8025 H         1 <0>         0.1068
     56 H19         2.1442   -0.1958   -6.3173 H         1 <0>         0.0452
     57 H20         0.3231   -1.7298   -5.8030 H         1 <0>         0.0791
     58 H21        -0.8685   -0.6103   -6.5154 H         1 <0>         0.1129
     59 H22         1.7325    3.1337   -7.8072 H         1 <0>         0.0934
     60 H23         2.8959    1.8163   -7.5255 H         1 <0>         0.0544
     61 H24         2.3897    1.9391   -9.9175 H         1 <0>         0.0556
     62 H25         1.6879    0.4457   -9.2500 H         1 <0>         0.0439
     63 H26         0.1134    1.6511  -10.5818 H         1 <0>         0.3810
     64 H27         0.0115   -4.5451   -1.5289 H         1 <0>         0.4438
     65 H28        -0.9116   -4.5159   -4.1979 H         1 <0>         0.0872
     66 H29         0.8682   -4.5138   -4.2199 H         1 <0>         0.0859
     67 H30         0.8880   -6.5523   -2.8082 H         1 <0>         0.0930
     68 H31        -0.8918   -6.5544   -2.7862 H         1 <0>         0.0934
     69 H32        -2.1586   -7.1008   -4.7843 H         1 <0>         0.1288
     70 H33        -2.1879   -8.3210   -6.9218 H         1 <0>         0.1341
     71 H34         2.0856   -8.3328   -6.9651 H         1 <0>         0.1337
     72 H35         2.1063   -7.1044   -4.8321 H         1 <0>         0.1284
     73 H36        -0.0730   -8.5061   -9.0388 H         1 <0>         0.3963
     74 H37        -0.0247   -2.4850   -4.3491 H         1 <0>         0.4325
@<TRIPOS>BOND
     1    1    2 1
     2    1   38 1
     3    1   39 1
     4    1   40 1
     5    2    3 1
     6    2   13 1
     7    3    4 1
     8    3   41 1
     9    3   42 1
    10    4    5 1
    11    4   43 1
    12    4   44 1
    13    5    6 1
    14    5   45 1
    15    5   46 1
    16    6   11 ar
    17    6    7 ar
    18    7    8 ar
    19    7   47 1
    20    8    9 ar
    21    8   48 1
    22    9   10 ar
    23    9   12 1
    24   10   11 ar
    25   10   49 1
    26   11   50 1
    27   13   18 ar
    28   13   14 ar
    29   14   15 ar
    30   15   16 ar
    31   15   28 1
    32   16   17 ar
    33   16   74 1
    34   17   18 ar
    35   17   19 1
    36   19   24 1
    37   19   20 1
    38   20   21 1
    39   20   51 1
    40   20   52 1
    41   21   22 1
    42   21   53 1
    43   21   54 1
    44   22   23 1
    45   22   25 1
    46   23   24 1
    47   23   55 1
    48   23   56 1
    49   24   57 1
    50   24   58 1
    51   25   26 1
    52   25   59 1
    53   25   60 1
    54   26   27 1
    55   26   61 1
    56   26   62 1
    57   27   63 1
    58   28   29 1
    59   28   64 1
    60   29   30 1
    61   29   65 1
    62   29   66 1
    63   30   31 1
    64   30   67 1
    65   30   68 1
    66   31   36 ar
    67   31   32 ar
    68   32   33 ar
    69   32   69 1
    70   33   34 ar
    71   33   70 1
    72   34   35 ar
    73   34   37 1
    74   35   36 ar
    75   35   71 1
    76   36   72 1
    77   37   73 1
@<TRIPOS>MOLECULE
CHEMBL347560__2
   74    77     0     0     0
SMALL
USER_CHARGES

@<TRIPOS>ATOM
      1 C1         -0.0178    1.4608    0.0101 C.3       1 <0>         0.0991
      2 N1          0.0021   -0.0041    0.0020 N.pl3     1 <0>        -0.5708
      3 C2          0.0241   -0.7433    1.2666 C.3       1 <0>         0.1282
      4 C3         -1.4105   -1.0203    1.7205 C.3       1 <0>        -0.1256
      5 C4         -1.3875   -1.7923    3.0413 C.3       1 <0>        -0.0771
      6 C5         -2.8005   -2.0651    3.4884 C.ar      1 <0>        -0.0784
      7 C6         -3.4587   -1.1539    4.2931 C.ar      1 <0>        -0.1048
      8 C7         -4.7547   -1.4036    4.7034 C.ar      1 <0>        -0.1076
      9 C8         -5.3933   -2.5657    4.3087 C.ar      1 <0>        -0.0381
     10 C9         -4.7340   -3.4773    3.5034 C.ar      1 <0>        -0.1080
     11 C10        -3.4400   -3.2238    3.0890 C.ar      1 <0>        -0.1032
     12 Cl1        -7.0209   -2.8802    4.8242 Cl        1 <0>        -0.0670
     13 C11         0.0000   -0.6876   -1.1969 C.ar      1 <0>         0.6578
     14 N2          0.0126   -2.0171   -1.2042 N.ar      1 <0>        -0.6593
     15 C12         0.0106   -2.6754   -2.3589 C.ar      1 <0>         0.6587
     16 N3         -0.0039   -2.0045   -3.5066 N.ar      1 <0>        -0.6817
     17 C13        -0.0169   -0.6754   -3.4993 C.ar      1 <0>         0.6559
     18 N4         -0.0200   -0.0169   -2.3443 N.ar      1 <0>        -0.6770
     19 N5         -0.0315    0.0211   -4.6907 N.pl3     1 <0>        -0.5972
     20 C14        -0.0398    1.4921   -4.7069 C.3       1 <0>         0.1089
     21 C15         1.0694    1.9737   -5.6479 C.3       1 <0>        -0.0207
     22 N6          0.8954    1.3521   -6.9667 N.4       1 <0>        -0.3831
     23 C16         1.0705   -0.1019   -6.8613 C.3       1 <0>        -0.0257
     24 C17        -0.0330   -0.6864   -5.9805 C.3       1 <0>         0.1097
     25 C18         1.8918    1.8973   -7.8984 C.3       1 <0>        -0.0051
     26 C19         1.6338    1.3450   -9.3017 C.3       1 <0>         0.0447
     27 O1          0.3726    1.8206   -9.7763 O.3       1 <0>        -0.5801
     28 N7          0.0241   -4.0554   -2.3664 N.pl3     1 <0>        -0.6831
     29 C20         0.0405   -4.7947   -1.1018 C.3       1 <0>         0.1420
     30 C21         0.0532   -6.2974   -1.3895 C.3       1 <0>        -0.0914
     31 C22         0.0701   -7.0579   -0.0886 C.ar      1 <0>        -0.0958
     32 C23         1.2759   -7.3895    0.5013 C.ar      1 <0>        -0.0951
     33 C24         1.2941   -8.0869    1.6936 C.ar      1 <0>        -0.1429
     34 C25         0.1013   -8.4543    2.2993 C.ar      1 <0>         0.1099
     35 C26        -1.1072   -8.1200    1.7056 C.ar      1 <0>        -0.1423
     36 C27        -1.1201   -7.4179    0.5159 C.ar      1 <0>        -0.0948
     37 O2          0.1166   -9.1409    3.4720 O.3       1 <0>        -0.4991
     38 H1          1.0048    1.8381    0.0023 H         1 <0>         0.0561
     39 H2         -0.5450    1.8219   -0.8730 H         1 <0>         0.0791
     40 H3         -0.5280    1.8123    0.9069 H         1 <0>         0.0745
     41 H4          0.5496   -1.6879    1.1262 H         1 <0>         0.0923
     42 H5          0.5371   -0.1514    2.0246 H         1 <0>         0.0825
     43 H6         -1.9359   -0.0757    1.8610 H         1 <0>         0.0645
     44 H7         -1.9235   -1.6122    0.9626 H         1 <0>         0.0684
     45 H8         -0.8620   -2.7369    2.9008 H         1 <0>         0.0782
     46 H9         -0.8745   -1.2004    3.7993 H         1 <0>         0.0771
     47 H10        -2.9600   -0.2469    4.6014 H         1 <0>         0.1311
     48 H11        -5.2687   -0.6918    5.3324 H         1 <0>         0.1341
     49 H12        -5.2319   -4.3848    3.1952 H         1 <0>         0.1330
     50 H13        -2.9270   -3.9331    2.4564 H         1 <0>         0.1296
     51 H14        -1.0052    1.8490   -5.0659 H         1 <0>         0.0923
     52 H15         0.1430    1.8705   -3.7012 H         1 <0>         0.1418
     53 H16         1.0164    3.0579   -5.7472 H         1 <0>         0.1442
     54 H17         2.0401    1.6931   -5.2391 H         1 <0>         0.1320
     55 H18         1.0183   -0.5473   -7.8548 H         1 <0>         0.1422
     56 H19         2.0412   -0.3197   -6.4158 H         1 <0>         0.1323
     57 H20         0.1544   -1.7476   -5.8164 H         1 <0>         0.1417
     58 H21        -0.9976   -0.5532   -6.4702 H         1 <0>         0.0915
     59 H22         1.8160    2.9845   -7.9161 H         1 <0>         0.1395
     60 H23         2.8908    1.6080   -7.5721 H         1 <0>         0.1414
     61 H24         2.4242    1.6782   -9.9743 H         1 <0>         0.0956
     62 H25         1.6216    0.2557   -9.2669 H         1 <0>         0.0720
     63 H26         0.1431    1.5094  -10.6626 H         1 <0>         0.4096
     64 H27         0.0226   -4.5359   -3.2091 H         1 <0>         0.4162
     65 H28         0.9321   -4.5258   -0.5353 H         1 <0>         0.0732
     66 H29        -0.8477   -4.5432   -0.5223 H         1 <0>         0.0736
     67 H30        -0.8384   -6.5663   -1.9560 H         1 <0>         0.0815
     68 H31         0.9415   -6.5489   -1.9690 H         1 <0>         0.0811
     69 H32         2.2042   -7.1033    0.0294 H         1 <0>         0.1263
     70 H33         2.2362   -8.3464    2.1536 H         1 <0>         0.1304
     71 H34        -2.0371   -8.4048    2.1752 H         1 <0>         0.1305
     72 H35        -2.0606   -7.1535    0.0556 H         1 <0>         0.1265
     73 H36         0.1129   -8.5773    4.2578 H         1 <0>         0.3937
     74 H37        -0.0307    1.5539   -7.3127 H         1 <0>         0.4306
@<TRIPOS>BOND
     1    1    2 1
     2    1   38 1
     3    1   39 1
     4    1   40 1
     5    2    3 1
     6    2   13 1
     7    3    4 1
     8    3   41 1
     9    3   42 1
    10    4    5 1
    11    4   43 1
    12    4   44 1
    13    5    6 1
    14    5   45 1
    15    5   46 1
    16    6   11 ar
    17    6    7 ar
    18    7    8 ar
    19    7   47 1
    20    8    9 ar
    21    8   48 1
    22    9   10 ar
    23    9   12 1
    24   10   11 ar
    25   10   49 1
    26   11   50 1
    27   13   18 ar
    28   13   14 ar
    29   14   15 ar
    30   15   16 ar
    31   15   28 1
    32   16   17 ar
    33   17   18 ar
    34   17   19 1
    35   19   24 1
    36   19   20 1
    37   20   21 1
    38   20   51 1
    39   20   52 1
    40   21   22 1
    41   21   53 1
    42   21   54 1
    43   22   23 1
    44   22   25 1
    45   22   74 1
    46   23   24 1
    47   23   55 1
    48   23   56 1
    49   24   57 1
    50   24   58 1
    51   25   26 1
    52   25   59 1
    53   25   60 1
    54   26   27 1
    55   26   61 1
    56   26   62 1
    57   27   63 1
    58   28   29 1
    59   28   64 1
    60   29   30 1
    61   29   65 1
    62   29   66 1
    63   30   31 1
    64   30   67 1
    65   30   68 1
    66   31   36 ar
    67   31   32 ar
    68   32   33 ar
    69   32   69 1
    70   33   34 ar
    71   33   70 1
    72   34   35 ar
    73   34   37 1
    74   35   36 ar
    75   35   71 1
    76   36   72 1
    77   37   73 1
@<TRIPOS>MOLECULE
CHEMBL347560__3
   75    78     0     0     0
SMALL
USER_CHARGES

@<TRIPOS>ATOM
      1 C1         -0.0178    1.4608    0.0101 C.3       1 <0>         0.0504
      2 N1          0.0021   -0.0041    0.0020 N.pl3     1 <0>        -0.5407
      3 C2          0.0241   -0.7433    1.2666 C.3       1 <0>         0.1115
      4 C3         -1.4105   -1.0203    1.7205 C.3       1 <0>        -0.1303
      5 C4         -1.3875   -1.7923    3.0413 C.3       1 <0>        -0.0749
      6 C5         -2.8005   -2.0651    3.4884 C.ar      1 <0>        -0.0895
      7 C6         -3.4587   -1.1539    4.2931 C.ar      1 <0>        -0.1011
      8 C7         -4.7547   -1.4036    4.7034 C.ar      1 <0>        -0.1033
      9 C8         -5.3933   -2.5657    4.3087 C.ar      1 <0>        -0.0337
     10 C9         -4.7340   -3.4773    3.5034 C.ar      1 <0>        -0.1098
     11 C10        -3.4400   -3.2238    3.0890 C.ar      1 <0>        -0.1071
     12 Cl1        -7.0209   -2.8802    4.8242 Cl        1 <0>        -0.0555
     13 C11         0.0000   -0.6876   -1.1969 C.ar      1 <0>         0.6882
     14 N2         -0.0145   -0.0167   -2.3446 N.ar      1 <0>        -0.6345
     15 C12        -0.0165   -0.6751   -3.4993 C.ar      1 <0>         0.7000
     16 N3         -0.0039   -2.0045   -3.5066 N.ar      1 <0>        -0.6258
     17 C13         0.0110   -2.6753   -2.3592 C.ar      1 <0>         0.6919
     18 N4          0.0180   -2.0167   -1.2042 N.ar      1 <0>        -0.6197
     19 N5          0.0236   -4.0553   -2.3667 N.pl3     1 <0>        -0.5659
     20 C14         0.0340   -4.8185   -1.1091 C.3       1 <0>         0.0944
     21 C15        -1.0770   -5.8719   -1.1711 C.3       1 <0>        -0.0225
     22 N6         -0.9073   -6.6905   -2.3782 N.4       1 <0>        -0.3861
     23 C16        -1.0843   -5.8589   -3.5753 C.3       1 <0>        -0.0274
     24 C17         0.0207   -4.8048   -3.6325 C.3       1 <0>         0.0956
     25 C18        -1.9053   -7.7684   -2.3810 C.3       1 <0>        -0.0058
     26 C19        -1.6517   -8.6951   -3.5717 C.3       1 <0>         0.0436
     27 O1         -0.3910   -9.3476   -3.4074 O.3       1 <0>        -0.5811
     28 N7         -0.0320    0.0214   -4.6907 N.pl3     1 <0>        -0.6502
     29 C20        -0.0463    1.4863   -4.6827 C.3       1 <0>         0.0877
     30 C21        -0.0619    2.0041   -6.1224 C.3       1 <0>        -0.0828
     31 C22        -0.0766    3.5110   -6.1141 C.ar      1 <0>        -0.1180
     32 C23        -1.2813    4.1893   -6.0959 C.ar      1 <0>        -0.0932
     33 C24        -1.2975    5.5706   -6.0887 C.ar      1 <0>        -0.1429
     34 C25        -0.1036    6.2772   -6.0994 C.ar      1 <0>         0.1241
     35 C26         1.1038    5.5943   -6.1173 C.ar      1 <0>        -0.1424
     36 C27         1.1146    4.2128   -6.1191 C.ar      1 <0>        -0.0928
     37 O2         -0.1169    7.6362   -6.0929 O.3       1 <0>        -0.4957
     38 H1          1.0048    1.8381    0.0023 H         1 <0>         0.0969
     39 H2         -0.5450    1.8219   -0.8730 H         1 <0>         0.0762
     40 H3         -0.5280    1.8123    0.9069 H         1 <0>         0.1194
     41 H4          0.5496   -1.6879    1.1262 H         1 <0>         0.1074
     42 H5          0.5371   -0.1514    2.0246 H         1 <0>         0.1104
     43 H6         -1.9359   -0.0757    1.8610 H         1 <0>         0.0755
     44 H7         -1.9235   -1.6122    0.9626 H         1 <0>         0.0703
     45 H8         -0.8620   -2.7369    2.9008 H         1 <0>         0.0792
     46 H9         -0.8745   -1.2004    3.7993 H         1 <0>         0.0839
     47 H10        -2.9600   -0.2469    4.6014 H         1 <0>         0.1332
     48 H11        -5.2687   -0.6918    5.3324 H         1 <0>         0.1385
     49 H12        -5.2319   -4.3848    3.1952 H         1 <0>         0.1336
     50 H13        -2.9270   -3.9331    2.4564 H         1 <0>         0.1242
     51 H14         0.9990   -5.3106   -0.9873 H         1 <0>         0.1127
     52 H15        -0.1457   -4.1455   -0.2707 H         1 <0>         0.1479
     53 H16        -1.0226   -6.5098   -0.2888 H         1 <0>         0.1553
     54 H17        -2.0470   -5.3758   -1.2018 H         1 <0>         0.1369
     55 H18        -1.0353   -6.4871   -4.4648 H         1 <0>         0.1534
     56 H19        -2.0541   -5.3631   -3.5333 H         1 <0>         0.1373
     57 H20        -0.1678   -4.1228   -4.4616 H         1 <0>         0.1480
     58 H21         0.9842   -5.2955   -3.7698 H         1 <0>         0.1120
     59 H22        -1.8280   -8.3376   -1.4547 H         1 <0>         0.1445
     60 H23        -2.9038   -7.3388   -2.4612 H         1 <0>         0.1442
     61 H24        -2.4433   -9.4425   -3.6255 H         1 <0>         0.1002
     62 H25        -1.6410   -8.1103   -4.4915 H         1 <0>         0.0717
     63 H26        -0.1643   -9.9522   -4.1273 H         1 <0>         0.4136
     64 H27        -0.0334   -0.4590   -5.5334 H         1 <0>         0.4464
     65 H28        -0.9360    1.8381   -4.1604 H         1 <0>         0.0918
     66 H29         0.8438    1.8556   -4.1734 H         1 <0>         0.0928
     67 H30         0.8278    1.6523   -6.6447 H         1 <0>         0.0941
     68 H31        -0.9520    1.6348   -6.6317 H         1 <0>         0.0936
     69 H32        -2.2104    3.6388   -6.0876 H         1 <0>         0.1278
     70 H33        -2.2387    6.1000   -6.0752 H         1 <0>         0.1354
     71 H34         2.0345    6.1421   -6.1256 H         1 <0>         0.1357
     72 H35         2.0544    3.6807   -6.1285 H         1 <0>         0.1284
     73 H36        -0.1104    8.0253   -5.2077 H         1 <0>         0.3984
     74 H37        -0.0240    0.9532   -2.3393 H         1 <0>         0.4404
     75 H38         0.0182   -7.0924   -2.3832 H         1 <0>         0.4343
@<TRIPOS>BOND
     1    1    2 1
     2    1   38 1
     3    1   39 1
     4    1   40 1
     5    2    3 1
     6    2   13 1
     7    3    4 1
     8    3   41 1
     9    3   42 1
    10    4    5 1
    11    4   43 1
    12    4   44 1
    13    5    6 1
    14    5   45 1
    15    5   46 1
    16    6   11 ar
    17    6    7 ar
    18    7    8 ar
    19    7   47 1
    20    8    9 ar
    21    8   48 1
    22    9   10 ar
    23    9   12 1
    24   10   11 ar
    25   10   49 1
    26   11   50 1
    27   13   18 ar
    28   13   14 ar
    29   14   15 ar
    30   14   74 1
    31   15   16 ar
    32   15   28 1
    33   16   17 ar
    34   17   18 ar
    35   17   19 1
    36   19   24 1
    37   19   20 1
    38   20   21 1
    39   20   51 1
    40   20   52 1
    41   21   22 1
    42   21   53 1
    43   21   54 1
    44   22   23 1
    45   22   25 1
    46   22   75 1
    47   23   24 1
    48   23   55 1
    49   23   56 1
    50   24   57 1
    51   24   58 1
    52   25   26 1
    53   25   59 1
    54   25   60 1
    55   26   27 1
    56   26   61 1
    57   26   62 1
    58   27   63 1
    59   28   29 1
    60   28   64 1
    61   29   30 1
    62   29   65 1
    63   29   66 1
    64   30   31 1
    65   30   67 1
    66   30   68 1
    67   31   36 ar
    68   31   32 ar
    69   32   33 ar
    70   32   69 1
    71   33   34 ar
    72   33   70 1
    73   34   35 ar
    74   34   37 1
    75   35   36 ar
    76   35   71 1
    77   36   72 1
    78   37   73 1
@<TRIPOS>MOLECULE
CHEMBL347560__4
   74    77     0     0     0
SMALL
USER_CHARGES

@<TRIPOS>ATOM
      1 C1         -0.0178    1.4608    0.0101 C.3       1 <0>         0.0583
      2 N1          0.0021   -0.0041    0.0020 N.pl3     1 <0>        -0.5553
      3 C2          0.0241   -0.7433    1.2666 C.3       1 <0>         0.1167
      4 C3         -1.4105   -1.0203    1.7205 C.3       1 <0>        -0.1306
      5 C4         -1.3875   -1.7923    3.0413 C.3       1 <0>        -0.0762
      6 C5         -2.8005   -2.0651    3.4884 C.ar      1 <0>        -0.0852
      7 C6         -3.4587   -1.1539    4.2931 C.ar      1 <0>        -0.1035
      8 C7         -4.7547   -1.4036    4.7034 C.ar      1 <0>        -0.1069
      9 C8         -5.3933   -2.5657    4.3087 C.ar      1 <0>        -0.0354
     10 C9         -4.7340   -3.4773    3.5034 C.ar      1 <0>        -0.1081
     11 C10        -3.4400   -3.2238    3.0890 C.ar      1 <0>        -0.1034
     12 Cl1        -7.0209   -2.8802    4.8242 Cl        1 <0>        -0.0623
     13 C11         0.0000   -0.6876   -1.1969 C.ar      1 <0>         0.6836
     14 N2         -0.0145   -0.0167   -2.3446 N.ar      1 <0>        -0.6390
     15 C12        -0.0165   -0.6751   -3.4993 C.ar      1 <0>         0.6936
     16 N3         -0.0039   -2.0045   -3.5066 N.ar      1 <0>        -0.6205
     17 C13         0.0110   -2.6753   -2.3592 C.ar      1 <0>         0.6734
     18 N4          0.0180   -2.0167   -1.2042 N.ar      1 <0>        -0.6151
     19 N5          0.0236   -4.0553   -2.3667 N.pl3     1 <0>        -0.5245
     20 C14         0.0341   -4.8170   -1.1086 C.3       1 <0>         0.1160
     21 C15        -1.0888   -5.8585   -1.1607 C.3       1 <0>         0.0392
     22 N6         -0.9453   -6.6680   -2.3781 N.3       1 <0>        -0.5291
     23 C16        -1.0957   -5.8453   -3.5858 C.3       1 <0>         0.0346
     24 C17         0.0206   -4.8033   -3.6331 C.3       1 <0>         0.1161
     25 C18        -1.8971   -7.7870   -2.3815 C.3       1 <0>         0.0547
     26 C19        -1.5566   -8.7427   -3.5267 C.3       1 <0>         0.0778
     27 O1         -0.2779   -9.3347   -3.2889 O.3       1 <0>        -0.5604
     28 N7         -0.0320    0.0214   -4.6907 N.pl3     1 <0>        -0.6645
     29 C20        -0.0463    1.4863   -4.6827 C.3       1 <0>         0.0946
     30 C21        -0.0619    2.0041   -6.1224 C.3       1 <0>        -0.0846
     31 C22        -0.0766    3.5110   -6.1141 C.ar      1 <0>        -0.1113
     32 C23        -1.2813    4.1893   -6.0959 C.ar      1 <0>        -0.0937
     33 C24        -1.2975    5.5706   -6.0887 C.ar      1 <0>        -0.1430
     34 C25        -0.1036    6.2772   -6.0994 C.ar      1 <0>         0.1187
     35 C26         1.1038    5.5943   -6.1173 C.ar      1 <0>        -0.1427
     36 C27         1.1146    4.2128   -6.1191 C.ar      1 <0>        -0.0933
     37 O2         -0.1169    7.6362   -6.0929 O.3       1 <0>        -0.4971
     38 H1          1.0048    1.8381    0.0023 H         1 <0>         0.0891
     39 H2         -0.5450    1.8219   -0.8730 H         1 <0>         0.0720
     40 H3         -0.5280    1.8123    0.9069 H         1 <0>         0.1124
     41 H4          0.5496   -1.6879    1.1262 H         1 <0>         0.1074
     42 H5          0.5371   -0.1514    2.0246 H         1 <0>         0.1040
     43 H6         -1.9359   -0.0757    1.8610 H         1 <0>         0.0715
     44 H7         -1.9235   -1.6122    0.9626 H         1 <0>         0.0724
     45 H8         -0.8620   -2.7369    2.9008 H         1 <0>         0.0818
     46 H9         -0.8745   -1.2004    3.7993 H         1 <0>         0.0813
     47 H10        -2.9600   -0.2469    4.6014 H         1 <0>         0.1316
     48 H11        -5.2687   -0.6918    5.3324 H         1 <0>         0.1356
     49 H12        -5.2319   -4.3848    3.1952 H         1 <0>         0.1342
     50 H13        -2.9270   -3.9331    2.4564 H         1 <0>         0.1297
     51 H14         0.9944   -5.3194   -0.9927 H         1 <0>         0.0980
     52 H15        -0.1322   -4.1410   -0.2699 H         1 <0>         0.1104
     53 H16        -1.0266   -6.5045   -0.2850 H         1 <0>         0.1020
     54 H17        -2.0541   -5.3524   -1.1721 H         1 <0>         0.0420
     55 H18        -1.0386   -6.4818   -4.4689 H         1 <0>         0.1022
     56 H19        -2.0609   -5.3394   -3.5634 H         1 <0>         0.0416
     57 H20        -0.1545   -4.1183   -4.4626 H         1 <0>         0.1104
     58 H21         0.9797   -5.3044   -3.7646 H         1 <0>         0.0978
     59 H22        -1.8346   -8.3199   -1.4327 H         1 <0>         0.0902
     60 H23        -2.9083   -7.4034   -2.5168 H         1 <0>         0.0522
     61 H24        -2.3138   -9.5246   -3.5848 H         1 <0>         0.0538
     62 H25        -1.5321   -8.1901   -4.4660 H         1 <0>         0.0453
     63 H26         0.0031   -9.9535   -3.9767 H         1 <0>         0.3802
     64 H27        -0.0334   -0.4590   -5.5334 H         1 <0>         0.4438
     65 H28        -0.9360    1.8381   -4.1604 H         1 <0>         0.0863
     66 H29         0.8438    1.8556   -4.1734 H         1 <0>         0.0873
     67 H30         0.8278    1.6523   -6.6447 H         1 <0>         0.0934
     68 H31        -0.9520    1.6348   -6.6317 H         1 <0>         0.0930
     69 H32        -2.2104    3.6388   -6.0876 H         1 <0>         0.1284
     70 H33        -2.2387    6.1000   -6.0752 H         1 <0>         0.1338
     71 H34         2.0345    6.1421   -6.1256 H         1 <0>         0.1341
     72 H35         2.0544    3.6807   -6.1285 H         1 <0>         0.1289
     73 H36        -0.1104    8.0253   -5.2077 H         1 <0>         0.3964
     74 H37        -0.0240    0.9532   -2.3393 H         1 <0>         0.4338
@<TRIPOS>BOND
     1    1    2 1
     2    1   38 1
     3    1   39 1
     4    1   40 1
     5    2    3 1
     6    2   13 1
     7    3    4 1
     8    3   41 1
     9    3   42 1
    10    4    5 1
    11    4   43 1
    12    4   44 1
    13    5    6 1
    14    5   45 1
    15    5   46 1
    16    6   11 ar
    17    6    7 ar
    18    7    8 ar
    19    7   47 1
    20    8    9 ar
    21    8   48 1
    22    9   10 ar
    23    9   12 1
    24   10   11 ar
    25   10   49 1
    26   11   50 1
    27   13   18 ar
    28   13   14 ar
    29   14   15 ar
    30   14   74 1
    31   15   16 ar
    32   15   28 1
    33   16   17 ar
    34   17   18 ar
    35   17   19 1
    36   19   24 1
    37   19   20 1
    38   20   21 1
    39   20   51 1
    40   20   52 1
    41   21   22 1
    42   21   53 1
    43   21   54 1
    44   22   23 1
    45   22   25 1
    46   23   24 1
    47   23   55 1
    48   23   56 1
    49   24   57 1
    50   24   58 1
    51   25   26 1
    52   25   59 1
    53   25   60 1
    54   26   27 1
    55   26   61 1
    56   26   62 1
    57   27   63 1
    58   28   29 1
    59   28   64 1
    60   29   30 1
    61   29   65 1
    62   29   66 1
    63   30   31 1
    64   30   67 1
    65   30   68 1
    66   31   36 ar
    67   31   32 ar
    68   32   33 ar
    69   32   69 1
    70   33   34 ar
    71   33   70 1
    72   34   35 ar
    73   34   37 1
    74   35   36 ar
    75   35   71 1
    76   36   72 1
    77   37   73 1
@<TRIPOS>MOLECULE
CHEMBL538148
   38    39     0     0     0
SMALL
USER_CHARGES

@<TRIPOS>ATOM
      1 C1          1.5141   -0.2077   -0.9897 C.3       1 <0>        -0.1624
      2 C2          0.4014   -0.0767    0.0522 C.3       1 <0>        -0.1227
      3 C3          0.9004   -0.6010    1.4001 C.3       1 <0>        -0.0348
      4 H1          1.8226   -0.0869    1.6711 H         1 <0>         0.0875
      5 C4          1.1623   -2.0815    1.2975 C.ar      1 <0>         0.0217
      6 C5          0.1203   -2.9724    1.4766 C.ar      1 <0>        -0.0796
      7 C6          0.3687   -4.3319    1.3807 C.ar      1 <0>        -0.1448
      8 C7          1.6674   -4.7489    1.1058 C.ar      1 <0>         0.2584
      9 C8          2.6602   -3.7947    0.9388 C.ar      1 <0>        -0.0516
     10 N1          2.3808   -2.5097    1.0328 N.ar      1 <0>        -0.3804
     11 O1          1.9591   -6.0724    1.0030 O.3       1 <0>        -0.6385
     12 C9         -0.1607   -0.3438    2.4719 C.3       1 <0>        -0.0421
     13 H2         -1.0905   -0.8368    2.1883 H         1 <0>         0.0896
     14 C10        -0.4006    1.1617    2.6012 C.3       1 <0>        -0.1473
     15 C11         0.3160   -0.8918    3.7924 C.ar      1 <0>        -0.0891
     16 C12         1.4813   -0.4099    4.3593 C.ar      1 <0>        -0.1019
     17 C13         1.9206   -0.9108    5.5695 C.ar      1 <0>        -0.1434
     18 C14         1.1912   -1.8980    6.2161 C.ar      1 <0>         0.1050
     19 C15         0.0220   -2.3795    5.6454 C.ar      1 <0>        -0.1390
     20 C16        -0.4158   -1.8715    4.4376 C.ar      1 <0>        -0.0946
     21 O2          1.6215   -2.3927    7.4065 O.3       1 <0>        -0.4996
     22 H3          1.7272   -1.2626   -1.1629 H         1 <0>         0.0505
     23 H4          1.1947    0.2564   -1.9228 H         1 <0>         0.0658
     24 H5          2.4131    0.2895   -0.6256 H         1 <0>         0.0555
     25 H6          0.1188    0.9713    0.1521 H         1 <0>         0.0827
     26 H7         -0.4643   -0.6577   -0.2657 H         1 <0>         0.0743
     27 H8         -0.8757   -2.6127    1.6891 H         1 <0>         0.1494
     28 H9         -0.4260   -5.0504    1.5163 H         1 <0>         0.1433
     29 H10         3.6715   -4.1076    0.7251 H         1 <0>         0.1771
     30 H11         3.0918   -1.8618    0.9076 H         1 <0>         0.4219
     31 H12        -1.0740    1.3519    3.4370 H         1 <0>         0.0640
     32 H13         0.5490    1.6671    2.7775 H         1 <0>         0.0595
     33 H14        -0.8476    1.5387    1.6814 H         1 <0>         0.0661
     34 H15         2.0488    0.3586    3.8555 H         1 <0>         0.1233
     35 H16         2.8314   -0.5346    6.0116 H         1 <0>         0.1276
     36 H17        -0.5476   -3.1479    6.1469 H         1 <0>         0.1299
     37 H18        -1.3283   -2.2429    3.9950 H         1 <0>         0.1269
     38 H19         1.2832   -1.9153    8.1763 H         1 <0>         0.3919
@<TRIPOS>BOND
     1    1    2 1
     2    1   22 1
     3    1   23 1
     4    1   24 1
     5    2    3 1
     6    2   25 1
     7    2   26 1
     8    3    4 1
     9    3   12 1
    10    3    5 1
    11    5   10 ar
    12    5    6 ar
    13    6   27 1
    14    6    7 ar
    15    7    8 ar
    16    7   28 1
    17    8   11 1
    18    8    9 ar
    19    9   29 1
    20    9   10 ar
    21   10   30 1
    22   12   13 1
    23   12   14 1
    24   12   15 1
    25   14   31 1
    26   14   32 1
    27   14   33 1
    28   15   20 ar
    29   15   16 ar
    30   16   17 ar
    31   16   34 1
    32   17   18 ar
    33   17   35 1
    34   18   19 ar
    35   18   21 1
    36   19   20 ar
    37   19   36 1
    38   20   37 1
    39   21   38 1
@<TRIPOS>MOLECULE
CHEMBL538148__1
   38    39     0     0     0
SMALL
USER_CHARGES

@<TRIPOS>ATOM
      1 C1         -1.6050   -0.3294   -0.7771 C.3       1 <0>        -0.1540
      2 C2         -0.1492   -0.1474   -0.3431 C.3       1 <0>        -0.1230
      3 C3          0.7796   -0.5866   -1.4768 C.3       1 <0>        -0.0312
      4 H1          0.5273   -0.0401   -2.3856 H         1 <0>         0.0932
      5 C4          0.6143   -2.0651   -1.7175 C.ar      1 <0>         0.1359
      6 C5          0.3598   -2.9056   -0.6497 C.ar      1 <0>        -0.1543
      7 C6          0.2091   -4.2635   -0.8788 C.ar      1 <0>        -0.1020
      8 C7          0.3209   -4.7301   -2.1848 C.ar      1 <0>         0.0489
      9 C8          0.5776   -3.8248   -3.2039 C.ar      1 <0>         0.0838
     10 N1          0.7091   -2.5389   -2.9442 N.ar      1 <0>        -0.4525
     11 O1          0.1810   -6.0541   -2.4581 O.3       1 <0>        -0.4928
     12 C9          2.2304   -0.2918   -1.0907 C.3       1 <0>        -0.0416
     13 H2          2.4592   -0.7756   -0.1411 H         1 <0>         0.0796
     14 C10         2.4245    1.2196   -0.9528 C.3       1 <0>        -0.1455
     15 C11         3.1521   -0.8212   -2.1590 C.ar      1 <0>        -0.0799
     16 C12         3.0523   -0.3467   -3.4538 C.ar      1 <0>        -0.0775
     17 C13         3.8957   -0.8308   -4.4350 C.ar      1 <0>        -0.1406
     18 C14         4.8437   -1.7934   -4.1202 C.ar      1 <0>         0.1006
     19 C15         4.9422   -2.2675   -2.8201 C.ar      1 <0>        -0.1452
     20 C16         4.0999   -1.7765   -1.8414 C.ar      1 <0>        -0.1013
     21 O2          5.6743   -2.2715   -5.0838 O.3       1 <0>        -0.5010
     22 H3         -1.8173    0.3267   -1.6212 H         1 <0>         0.0560
     23 H4         -1.7694   -1.3658   -1.0722 H         1 <0>         0.0521
     24 H5         -2.2656   -0.0788    0.0529 H         1 <0>         0.0569
     25 H6          0.0322    0.9019   -0.1107 H         1 <0>         0.0770
     26 H7          0.0449   -0.7543    0.5413 H         1 <0>         0.0677
     27 H8          0.2797   -2.5082    0.3514 H         1 <0>         0.1385
     28 H9          0.0100   -4.9433   -0.0636 H         1 <0>         0.1382
     29 H10         0.6663   -4.1764   -4.2212 H         1 <0>         0.1574
     30 H11        -0.7276   -6.3217   -2.6528 H         1 <0>         0.3920
     31 H12         3.4798    1.4369   -0.7881 H         1 <0>         0.0600
     32 H13         2.0899    1.7135   -1.8651 H         1 <0>         0.0599
     33 H14         1.8420    1.5850   -0.1071 H         1 <0>         0.0633
     34 H15         2.3140    0.4027   -3.6984 H         1 <0>         0.1232
     35 H16         3.8168   -0.4603   -5.4465 H         1 <0>         0.1256
     36 H17         5.6794   -3.0169   -2.5726 H         1 <0>         0.1240
     37 H18         4.1791   -2.1420   -0.8283 H         1 <0>         0.1197
     38 H19         6.4983   -1.7737   -5.1752 H         1 <0>         0.3888
@<TRIPOS>BOND
     1    1    2 1
     2    1   22 1
     3    1   23 1
     4    1   24 1
     5    2    3 1
     6    2   25 1
     7    2   26 1
     8    3    4 1
     9    3    5 1
    10    3   12 1
    11    5   10 ar
    12    5    6 ar
    13    6    7 ar
    14    6   27 1
    15    7    8 ar
    16    7   28 1
    17    8    9 ar
    18    8   11 1
    19    9   10 ar
    20    9   29 1
    21   11   30 1
    22   12   13 1
    23   12   14 1
    24   12   15 1
    25   14   31 1
    26   14   32 1
    27   14   33 1
    28   15   20 ar
    29   15   16 ar
    30   16   17 ar
    31   16   34 1
    32   17   18 ar
    33   17   35 1
    34   18   19 ar
    35   18   21 1
    36   19   20 ar
    37   19   36 1
    38   20   37 1
    39   21   38 1
@<TRIPOS>MOLECULE
CHEMBL30707
   28    31     0     0     0
SMALL
USER_CHARGES

@<TRIPOS>ATOM
      1 C1         -0.0168    1.3865    0.0097 C.ar      1 <0>        -0.1422
      2 C2          1.1655    2.0945    0.0022 C.ar      1 <0>        -0.0480
      3 C3          2.3794    1.4136   -0.0130 C.ar      1 <0>        -0.0767
      4 C4          2.4032    0.0097   -0.0207 C.ar      1 <0>         0.0701
      5 C5          1.2039   -0.6900   -0.0130 C.ar      1 <0>        -0.1279
      6 C6          0.0021   -0.0041    0.0020 C.ar      1 <0>         0.1404
      7 O1         -1.1687   -0.6946    0.0099 O.3       1 <0>        -0.4888
      8 O2          3.6933   -0.3914   -0.0352 O.3       1 <0>        -0.1609
      9 C7          4.5331    0.6547   -0.0376 C.2       1 <0>         0.1715
     10 C8          3.7907    1.8325   -0.0242 C.2       1 <0>        -0.2715
     11 C9          4.4536    3.0786   -0.0243 C.2       1 <0>         0.5517
     12 O3          3.7968    4.1038   -0.0126 O.2       1 <0>        -0.4475
     13 O4          5.7947    3.1560   -0.0366 O.3       1 <0>        -0.2632
     14 C10         6.5757    2.0537   -0.0500 C.ar      1 <0>         0.1830
     15 C11         5.9969    0.7723   -0.0506 C.ar      1 <0>        -0.1258
     16 C12         6.8087   -0.3647   -0.0649 C.ar      1 <0>        -0.0303
     17 C13         8.1680   -0.2294   -0.0772 C.ar      1 <0>        -0.1623
     18 C14         8.7487    1.0359   -0.0750 C.ar      1 <0>         0.1780
     19 C15         7.9577    2.1732   -0.0631 C.ar      1 <0>        -0.1609
     20 O5         10.1011    1.1562   -0.0864 O.3       1 <0>        -0.4883
     21 H1         -0.9598    1.9126    0.0260 H         1 <0>         0.1456
     22 H2          1.1502    3.1743    0.0077 H         1 <0>         0.1457
     23 H3          1.2089   -1.7699   -0.0192 H         1 <0>         0.1465
     24 H4         -1.5162   -0.8897   -0.8712 H         1 <0>         0.3985
     25 H5          6.3627   -1.3483   -0.0659 H         1 <0>         0.1498
     26 H6          8.7954   -1.1085   -0.0882 H         1 <0>         0.1489
     27 H7          8.4161    3.1511   -0.0619 H         1 <0>         0.1595
     28 H8         10.4850    1.1962   -0.9731 H         1 <0>         0.4050
@<TRIPOS>BOND
     1    1    6 ar
     2    1    2 ar
     3    1   21 1
     4    2    3 ar
     5    2   22 1
     6    3   10 1
     7    3    4 ar
     8    4    5 ar
     9    4    8 1
    10    5    6 ar
    11    5   23 1
    12    6    7 1
    13    7   24 1
    14    8    9 1
    15    9   15 1
    16    9   10 2
    17   10   11 1
    18   11   12 2
    19   11   13 1
    20   13   14 1
    21   14   19 ar
    22   14   15 ar
    23   15   16 ar
    24   16   17 ar
    25   16   25 1
    26   17   18 ar
    27   17   26 1
    28   18   19 ar
    29   18   20 1
    30   19   27 1
    31   20   28 1
@<TRIPOS>MOLECULE
CHEMBL364492
   67    71     0     0     0
SMALL
USER_CHARGES

@<TRIPOS>ATOM
      1 C1         -0.1478    1.0961   -0.3091 C.3       1 <0>        -0.1842
      2 C2          0.0963   -0.4120   -0.2241 C.3       1 <0>         0.0224
      3 C3          1.0060   -0.8470   -1.3747 C.3       1 <0>        -0.1843
      4 N1          0.7398   -0.7324    1.0570 N.4       1 <0>        -0.3802
      5 C4          0.9830   -2.1785    1.1323 C.3       1 <0>        -0.0274
      6 C5          1.7563   -2.4992    2.4156 C.3       1 <0>         0.1003
      7 N2          1.0119   -1.9484    3.5586 N.pl3     1 <0>        -0.6440
      8 C6          0.5834   -0.5425    3.4943 C.3       1 <0>         0.1012
      9 C7         -0.1345   -0.3142    2.1600 C.3       1 <0>        -0.0270
     10 C8          0.7206   -2.7376    4.6736 C.ar      1 <0>         0.2020
     11 C9          1.0351   -4.0907    4.6700 C.ar      1 <0>        -0.1835
     12 C10         0.7461   -4.8681    5.7742 C.ar      1 <0>        -0.0560
     13 C11         0.1440   -4.3011    6.8825 C.ar      1 <0>        -0.1263
     14 C12        -0.1704   -2.9545    6.8894 C.ar      1 <0>        -0.0527
     15 C13         0.1210   -2.1701    5.7907 C.ar      1 <0>        -0.1848
     16 C14        -0.1707   -5.1528    8.0853 C.3       1 <0>         0.2409
     17 C15        -1.6351   -5.0231    8.4228 C.ar      1 <0>        -0.0994
     18 C16        -2.5513   -5.6204    7.5668 C.ar      1 <0>        -0.0890
     19 C17        -3.9045   -5.5296    7.8138 C.ar      1 <0>        -0.1461
     20 C18        -4.3542   -4.8339    8.9270 C.ar      1 <0>         0.1144
     21 C19        -3.4401   -4.2424    9.7815 C.ar      1 <0>        -0.1471
     22 C20        -2.0769   -4.3403    9.5341 C.ar      1 <0>        -0.0464
     23 C21        -1.1412   -3.6948   10.5221 C.3       1 <0>        -0.1036
     24 C22         0.2340   -3.4637    9.8979 C.3       1 <0>         0.1135
     25 N3          0.6400   -4.7081    9.2238 N.pl3     1 <0>        -0.6181
     26 C23         1.7524   -5.4362    9.6517 C.ar      1 <0>         0.2392
     27 C24         2.4261   -5.0621   10.8083 C.ar      1 <0>        -0.2043
     28 C25         3.5261   -5.7823   11.2312 C.ar      1 <0>        -0.0531
     29 C26         3.9595   -6.8765   10.5064 C.ar      1 <0>        -0.2005
     30 C27         3.2905   -7.2550    9.3510 C.ar      1 <0>         0.1531
     31 C28         2.1832   -6.5378    8.9256 C.ar      1 <0>        -0.2251
     32 O1          3.7179   -8.3311    8.6395 O.3       1 <0>        -0.5018
     33 O2         -5.6862   -4.7333    9.1768 O.3       1 <0>        -0.4997
     34 H1          0.8040    1.6227   -0.2389 H         1 <0>         0.0818
     35 H2         -0.6253    1.3338   -1.2597 H         1 <0>         0.1069
     36 H3         -0.7959    1.4060    0.5106 H         1 <0>         0.0817
     37 H4         -0.8555   -0.9386   -0.2943 H         1 <0>         0.1356
     38 H5          1.9577   -0.3204   -1.3045 H         1 <0>         0.0818
     39 H6          1.1799   -1.9214   -1.3142 H         1 <0>         0.0819
     40 H7          0.5285   -0.6093   -2.3253 H         1 <0>         0.1068
     41 H8          0.0300   -2.7074    1.1405 H         1 <0>         0.1322
     42 H9          1.5667   -2.4944    0.2677 H         1 <0>         0.1428
     43 H10         1.8506   -3.5795    2.5262 H         1 <0>         0.1270
     44 H11         2.7462   -2.0450    2.3700 H         1 <0>         0.0873
     45 H12        -0.0978   -0.3292    4.3180 H         1 <0>         0.1259
     46 H13         1.4548    0.1092    3.5576 H         1 <0>         0.0869
     47 H14        -0.3744    0.7437    2.0527 H         1 <0>         0.1426
     48 H15        -1.0538   -0.8995    2.1371 H         1 <0>         0.1322
     49 H16         1.5047   -4.5343    3.8045 H         1 <0>         0.1240
     50 H17         0.9903   -5.9201    5.7721 H         1 <0>         0.1270
     51 H18        -0.6406   -2.5148    7.7566 H         1 <0>         0.1283
     52 H19        -0.1207   -1.1175    5.7985 H         1 <0>         0.1227
     53 H20         0.0584   -6.1947    7.8619 H         1 <0>         0.1027
     54 H21        -2.2005   -6.1606    6.6999 H         1 <0>         0.1254
     55 H22        -4.6110   -5.9973    7.1441 H         1 <0>         0.1306
     56 H23        -3.7897   -3.7003   10.6477 H         1 <0>         0.1301
     57 H24        -1.5571   -2.7379   10.8375 H         1 <0>         0.0880
     58 H25        -1.0356   -4.3431   11.3921 H         1 <0>         0.0868
     59 H26         0.1779   -2.6525    9.1720 H         1 <0>         0.0736
     60 H27         0.9550   -3.2138   10.6762 H         1 <0>         0.0936
     61 H28         2.0895   -4.2075   11.3765 H         1 <0>         0.1253
     62 H29         4.0488   -5.4897   12.1299 H         1 <0>         0.1279
     63 H30         4.8201   -7.4374   10.8395 H         1 <0>         0.1260
     64 H31         1.6589   -6.8335    8.0289 H         1 <0>         0.1235
     65 H32         3.3147   -9.1672    8.9106 H         1 <0>         0.3936
     66 H33        -6.0382   -5.4466    9.7267 H         1 <0>         0.3952
     67 H34         1.6192   -0.2420    1.1221 H         1 <0>         0.4201
@<TRIPOS>BOND
     1    1    2 1
     2    1   34 1
     3    1   35 1
     4    1   36 1
     5    2    3 1
     6    2    4 1
     7    2   37 1
     8    3   38 1
     9    3   39 1
    10    3   40 1
    11    4    9 1
    12    4    5 1
    13    4   67 1
    14    5    6 1
    15    5   41 1
    16    5   42 1
    17    6    7 1
    18    6   43 1
    19    6   44 1
    20    7    8 1
    21    7   10 1
    22    8    9 1
    23    8   45 1
    24    8   46 1
    25    9   47 1
    26    9   48 1
    27   10   15 ar
    28   10   11 ar
    29   11   12 ar
    30   11   49 1
    31   12   13 ar
    32   12   50 1
    33   13   14 ar
    34   13   16 1
    35   14   15 ar
    36   14   51 1
    37   15   52 1
    38   16   25 1
    39   16   17 1
    40   16   53 1
    41   17   22 ar
    42   17   18 ar
    43   18   19 ar
    44   18   54 1
    45   19   20 ar
    46   19   55 1
    47   20   21 ar
    48   20   33 1
    49   21   22 ar
    50   21   56 1
    51   22   23 1
    52   23   24 1
    53   23   57 1
    54   23   58 1
    55   24   25 1
    56   24   59 1
    57   24   60 1
    58   25   26 1
    59   26   31 ar
    60   26   27 ar
    61   27   28 ar
    62   27   61 1
    63   28   29 ar
    64   28   62 1
    65   29   30 ar
    66   29   63 1
    67   30   31 ar
    68   30   32 1
    69   31   64 1
    70   32   65 1
    71   33   66 1
@<TRIPOS>MOLECULE
CHEMBL364492__1
   67    71     0     0     0
SMALL
USER_CHARGES

@<TRIPOS>ATOM
      1 C1         -0.0578    1.5399    0.0145 C.3       1 <0>        -0.1842
      2 C2         -0.0263    0.0102    0.0040 C.3       1 <0>         0.0225
      3 C3          0.6947   -0.4765   -1.2546 C.3       1 <0>        -0.1844
      4 N1          0.6864   -0.4730    1.1943 N.4       1 <0>        -0.3802
      5 C4          0.7250   -1.9408    1.1771 C.3       1 <0>        -0.0276
      6 C5          1.5656   -2.4424    2.3559 C.3       1 <0>         0.1005
      7 N2          1.0233   -1.8637    3.5950 N.pl3     1 <0>        -0.6441
      8 C6          0.7975   -0.4108    3.6406 C.3       1 <0>         0.1013
      9 C7         -0.0068   -0.0051    2.4012 C.3       1 <0>        -0.0270
     10 C8          0.7316   -2.6708    4.6970 C.ar      1 <0>         0.2016
     11 C9          0.8447   -4.0518    4.5978 C.ar      1 <0>        -0.1838
     12 C10         0.5560   -4.8468    5.6894 C.ar      1 <0>        -0.0567
     13 C11         0.1542   -4.2698    6.8802 C.ar      1 <0>        -0.1242
     14 C12         0.0406   -2.8954    6.9824 C.ar      1 <0>        -0.0530
     15 C13         0.3333   -2.0941    5.8963 C.ar      1 <0>        -0.1848
     16 C14        -0.1610   -5.1406    8.0690 C.3       1 <0>         0.2392
     17 C15         0.6691   -4.6994    9.2485 C.ar      1 <0>        -0.1006
     18 C16         2.0313   -4.9682    9.2172 C.ar      1 <0>        -0.0886
     19 C17         2.8467   -4.5818   10.2595 C.ar      1 <0>        -0.1452
     20 C18         2.3007   -3.9172   11.3485 C.ar      1 <0>         0.1151
     21 C19         0.9425   -3.6534   11.3804 C.ar      1 <0>        -0.1475
     22 C20         0.1218   -4.0490   10.3320 C.ar      1 <0>        -0.0472
     23 C21        -1.3501   -3.7521   10.4488 C.3       1 <0>        -0.1036
     24 C22        -2.0239   -3.7940    9.0782 C.3       1 <0>         0.1139
     25 N3         -1.5860   -5.0230    8.3960 N.pl3     1 <0>        -0.6179
     26 C23        -2.4911   -6.0366    8.0736 C.ar      1 <0>         0.2401
     27 C24        -3.8510   -5.8501    8.2909 C.ar      1 <0>        -0.2055
     28 C25        -4.7460   -6.8526    7.9719 C.ar      1 <0>        -0.0533
     29 C26        -4.2922   -8.0430    7.4357 C.ar      1 <0>        -0.2011
     30 C27        -2.9354   -8.2347    7.2161 C.ar      1 <0>         0.1538
     31 C28        -2.0343   -7.2293    7.5303 C.ar      1 <0>        -0.2260
     32 O1         -2.4909   -9.4057    6.6888 O.3       1 <0>        -0.4991
     33 O2          3.0961   -3.5275   12.3792 O.3       1 <0>        -0.4973
     34 H1          0.9622    1.9243    0.0084 H         1 <0>         0.0818
     35 H2         -0.5865    1.8984   -0.8687 H         1 <0>         0.1070
     36 H3         -0.5714    1.8866    0.9112 H         1 <0>         0.0817
     37 H4         -1.0462   -0.3742    0.0102 H         1 <0>         0.1356
     38 H5          1.7146   -0.0920   -1.2608 H         1 <0>         0.0819
     39 H6          0.7171   -1.5662   -1.2621 H         1 <0>         0.0819
     40 H7          0.1659   -0.1179   -2.1378 H         1 <0>         0.1070
     41 H8         -0.2889   -2.3320    1.2612 H         1 <0>         0.1321
     42 H9          1.1700   -2.2817    0.2423 H         1 <0>         0.1428
     43 H10         1.5136   -3.5300    2.4063 H         1 <0>         0.1268
     44 H11         2.6012   -2.1278    2.2274 H         1 <0>         0.0874
     45 H12         0.2377   -0.1552    4.5403 H         1 <0>         0.1258
     46 H13         1.7556    0.1090    3.6418 H         1 <0>         0.0870
     47 H14        -0.1011    1.0804    2.3683 H         1 <0>         0.1426
     48 H15        -0.9986   -0.4549    2.4482 H         1 <0>         0.1321
     49 H16         1.1577   -4.5031    3.6679 H         1 <0>         0.1237
     50 H17         0.6437   -5.9206    5.6130 H         1 <0>         0.1270
     51 H18        -0.2734   -2.4479    7.9138 H         1 <0>         0.1286
     52 H19         0.2488   -1.0205    5.9781 H         1 <0>         0.1225
     53 H20         0.0720   -6.1784    7.8303 H         1 <0>         0.1039
     54 H21         2.4556   -5.4848    8.3690 H         1 <0>         0.1258
     55 H22         3.9049   -4.7955   10.2289 H         1 <0>         0.1314
     56 H23         0.5172   -3.1357   12.2275 H         1 <0>         0.1302
     57 H24        -1.8148   -4.4929   11.0994 H         1 <0>         0.0869
     58 H25        -1.4826   -2.7612   10.8831 H         1 <0>         0.0879
     59 H26        -3.1070   -3.8058    9.1999 H         1 <0>         0.0933
     60 H27        -1.7272   -2.9225    8.4945 H         1 <0>         0.0731
     61 H28        -4.2082   -4.9209    8.7097 H         1 <0>         0.1250
     62 H29        -5.8024   -6.7062    8.1421 H         1 <0>         0.1275
     63 H30        -4.9944   -8.8251    7.1877 H         1 <0>         0.1260
     64 H31        -0.9785   -7.3753    7.3562 H         1 <0>         0.1248
     65 H32        -2.4467   -9.4104    5.7228 H         1 <0>         0.3912
     66 H33         3.4675   -2.6407   12.2759 H         1 <0>         0.3928
     67 H34         1.6293   -0.1141    1.1890 H         1 <0>         0.4200
@<TRIPOS>BOND
     1    1    2 1
     2    1   34 1
     3    1   35 1
     4    1   36 1
     5    2    3 1
     6    2    4 1
     7    2   37 1
     8    3   38 1
     9    3   39 1
    10    3   40 1
    11    4    9 1
    12    4    5 1
    13    4   67 1
    14    5    6 1
    15    5   41 1
    16    5   42 1
    17    6    7 1
    18    6   43 1
    19    6   44 1
    20    7    8 1
    21    7   10 1
    22    8    9 1
    23    8   45 1
    24    8   46 1
    25    9   47 1
    26    9   48 1
    27   10   15 ar
    28   10   11 ar
    29   11   12 ar
    30   11   49 1
    31   12   13 ar
    32   12   50 1
    33   13   14 ar
    34   13   16 1
    35   14   15 ar
    36   14   51 1
    37   15   52 1
    38   16   25 1
    39   16   17 1
    40   16   53 1
    41   17   22 ar
    42   17   18 ar
    43   18   19 ar
    44   18   54 1
    45   19   20 ar
    46   19   55 1
    47   20   21 ar
    48   20   33 1
    49   21   22 ar
    50   21   56 1
    51   22   23 1
    52   23   24 1
    53   23   57 1
    54   23   58 1
    55   24   25 1
    56   24   59 1
    57   24   60 1
    58   25   26 1
    59   26   31 ar
    60   26   27 ar
    61   27   28 ar
    62   27   61 1
    63   28   29 ar
    64   28   62 1
    65   29   30 ar
    66   29   63 1
    67   30   31 ar
    68   30   32 1
    69   31   64 1
    70   32   65 1
    71   33   66 1
@<TRIPOS>MOLECULE
CHEMBL365779
   56    59     0     0     0
SMALL
USER_CHARGES

@<TRIPOS>ATOM
      1 C1          0.2093    1.2392    0.0011 C.ar      1 <0>        -0.1341
      2 C2          1.4333    1.8788   -0.0424 C.ar      1 <0>        -0.0483
      3 C3          2.5982    1.1398   -0.1286 C.ar      1 <0>        -0.1449
      4 C4          2.5417   -0.2424   -0.1716 C.ar      1 <0>         0.0252
      5 C5          1.3193   -0.8865   -0.1284 C.ar      1 <0>        -0.1961
      6 C6          0.1494   -0.1460   -0.0418 C.ar      1 <0>         0.1554
      7 O1         -1.0536   -0.7768    0.0013 O.3       1 <0>        -0.3178
      8 C7         -1.0394   -2.2049   -0.0470 C.3       1 <0>         0.0213
      9 C8         -2.4747   -2.7315    0.0120 C.3       1 <0>        -0.0017
     10 N1         -3.2102   -2.2827   -1.1778 N.4       1 <0>        -0.3846
     11 C9         -4.6241   -2.6545   -1.0463 C.3       1 <0>        -0.0078
     12 C10        -5.4099   -2.1186   -2.2449 C.3       1 <0>        -0.1467
     13 C11        -4.8398   -2.7205   -3.5325 C.3       1 <0>        -0.1407
     14 C12        -3.3474   -2.3893   -3.6220 C.3       1 <0>        -0.1448
     15 C13        -2.6379   -2.9152   -2.3724 C.3       1 <0>        -0.0136
     16 Cl1         4.0066   -1.1676   -0.2805 Cl        1 <0>        -0.0266
     17 C14         3.9317    1.8402   -0.1764 C.3       1 <0>         0.1572
     18 H1          4.5941    1.3562   -0.8941 H         1 <0>         0.1500
     19 C15         4.5783    1.8774    1.2232 C.3       1 <0>         0.1329
     20 H2          5.5633    1.4111    1.2022 H         1 <0>         0.1580
     21 N2          4.6930    3.3124    1.5193 N.pl3     1 <0>        -0.5994
     22 C16         4.2309    4.0041    0.5432 C.cat     1 <0>         0.5079
     23 N3          3.7597    3.2655   -0.5057 N.pl3     1 <0>        -0.6603
     24 C17         3.6928    1.1947    2.2335 C.ar      1 <0>        -0.1239
     25 C18         2.5480    1.8257    2.6871 C.ar      1 <0>         0.0143
     26 C19         1.7345    1.2011    3.6143 C.ar      1 <0>        -0.1269
     27 C20         2.0664   -0.0592    4.0895 C.ar      1 <0>         0.1668
     28 C21         3.2143   -0.6904    3.6332 C.ar      1 <0>        -0.1245
     29 C22         4.0225   -0.0648    2.7020 C.ar      1 <0>         0.0175
     30 Cl2         5.4554   -0.8572    2.1253 Cl        1 <0>        -0.0170
     31 O2          1.2683   -0.6745    5.0013 O.3       1 <0>        -0.4772
     32 Cl3         2.1331    3.4029    2.0921 Cl        1 <0>        -0.0523
     33 H3         -0.7001    1.8173    0.0730 H         1 <0>         0.1476
     34 H4          1.4798    2.9573   -0.0093 H         1 <0>         0.1450
     35 H5          1.2751   -1.9651   -0.1623 H         1 <0>         0.1475
     36 H6         -0.5701   -2.5324   -0.9747 H         1 <0>         0.0924
     37 H7         -0.4754   -2.5916    0.8018 H         1 <0>         0.1127
     38 H8         -2.4611   -3.8210    0.0412 H         1 <0>         0.1539
     39 H9         -2.9651   -2.3501    0.9076 H         1 <0>         0.1448
     40 H10        -4.7120   -3.7404   -1.0109 H         1 <0>         0.1316
     41 H11        -5.0275   -2.2281   -0.1279 H         1 <0>         0.1322
     42 H12        -6.4591   -2.3972   -2.1463 H         1 <0>         0.1158
     43 H13        -5.3229   -1.0327   -2.2811 H         1 <0>         0.0876
     44 H14        -4.9730   -3.8023   -3.5193 H         1 <0>         0.0841
     45 H15        -5.3591   -2.2987   -4.3931 H         1 <0>         0.0969
     46 H16        -2.9222   -2.8614   -4.5078 H         1 <0>         0.1138
     47 H17        -3.2175   -1.3090   -3.6868 H         1 <0>         0.0867
     48 H18        -1.5751   -2.6812   -2.4330 H         1 <0>         0.1245
     49 H19        -2.7682   -3.9955   -2.3087 H         1 <0>         0.1328
     50 H20         4.2162    5.0840    0.5486 H         1 <0>         0.2520
     51 H21         3.3774    3.6169   -1.3250 H         1 <0>         0.4637
     52 H22         0.8414    1.6942    3.9687 H         1 <0>         0.1568
     53 H23         3.4743   -1.6716    4.0020 H         1 <0>         0.1608
     54 H24         0.5735   -1.2217    4.6101 H         1 <0>         0.4044
     55 H25        -3.1345   -1.2800   -1.2604 H         1 <0>         0.4272
     56 H26         5.0645    3.6829    2.3352 H         1 <0>         0.4677
@<TRIPOS>BOND
     1    1    6 ar
     2    1    2 ar
     3    1   33 1
     4    2    3 ar
     5    2   34 1
     6    3    4 ar
     7    3   17 1
     8    4    5 ar
     9    4   16 1
    10    5    6 ar
    11    5   35 1
    12    6    7 1
    13    7    8 1
    14    8    9 1
    15    8   36 1
    16    8   37 1
    17    9   10 1
    18    9   38 1
    19    9   39 1
    20   10   15 1
    21   10   11 1
    22   10   55 1
    23   11   12 1
    24   11   40 1
    25   11   41 1
    26   12   13 1
    27   12   42 1
    28   12   43 1
    29   13   14 1
    30   13   44 1
    31   13   45 1
    32   14   15 1
    33   14   46 1
    34   14   47 1
    35   15   48 1
    36   15   49 1
    37   17   18 1
    38   17   23 1
    39   17   19 1
    40   19   20 1
    41   19   21 1
    42   19   24 1
    43   21   22 2
    44   21   56 1
    45   22   23 1
    46   22   50 1
    47   23   51 1
    48   24   29 ar
    49   24   25 ar
    50   25   26 ar
    51   25   32 1
    52   26   27 ar
    53   26   52 1
    54   27   28 ar
    55   27   31 1
    56   28   29 ar
    57   28   53 1
    58   29   30 1
    59   31   54 1
@<TRIPOS>MOLECULE
CHEMBL198411
   29    31     0     0     0
SMALL
USER_CHARGES

@<TRIPOS>ATOM
      1 C1         -0.0168    1.3904    0.0097 C.ar      1 <0>        -0.0554
      2 C2          1.1684    2.0944    0.0022 C.ar      1 <0>        -0.1510
      3 C3          2.3803    1.4165   -0.0135 C.ar      1 <0>         0.1245
      4 C4          2.4026    0.0279   -0.0212 C.ar      1 <0>        -0.1482
      5 C5          1.2208   -0.6819   -0.0137 C.ar      1 <0>        -0.0782
      6 C6          0.0021   -0.0041    0.0020 C.ar      1 <0>        -0.0686
      7 C7         -1.2702   -0.7640    0.0106 C.ar      1 <0>         0.2077
      8 C8         -1.2310   -2.1672    0.0085 C.ar      1 <0>        -0.1264
      9 C9         -2.3948   -2.8784    0.0168 C.ar      1 <0>        -0.0342
     10 C10        -3.6129   -2.1669    0.0273 C.ar      1 <0>        -0.0713
     11 C11        -4.8453   -2.8366    0.0367 C.ar      1 <0>        -0.1323
     12 C12        -6.0059   -2.1153    0.0472 C.ar      1 <0>         0.1245
     13 C13        -5.9788   -0.7176    0.0482 C.ar      1 <0>        -0.1186
     14 C14        -4.7995   -0.0402    0.0393 C.ar      1 <0>        -0.0706
     15 C15        -3.5849   -0.7500    0.0288 C.ar      1 <0>         0.1341
     16 N1         -2.4140   -0.1062    0.0255 N.ar      1 <0>        -0.4521
     17 O1         -7.2001   -2.7641    0.0562 O.3       1 <0>        -0.4945
     18 Br1        -2.3759   -4.7693    0.0136 Br        1 <0>        -0.0154
     19 O2          3.5464    2.1130   -0.0218 O.3       1 <0>        -0.4986
     20 H1         -0.9590    1.9182    0.0260 H         1 <0>         0.1417
     21 H2          1.1544    3.1743    0.0081 H         1 <0>         0.1350
     22 H3          3.3467   -0.4964   -0.0334 H         1 <0>         0.1358
     23 H4          1.2388   -1.7617   -0.0204 H         1 <0>         0.1331
     24 H5         -0.2817   -2.6822   -0.0000 H         1 <0>         0.1523
     25 H6         -4.8767   -3.9162    0.0353 H         1 <0>         0.1448
     26 H7         -6.9082   -0.1675    0.0558 H         1 <0>         0.1428
     27 H8         -4.7955    1.0398    0.0398 H         1 <0>         0.1475
     28 H9         -7.5384   -2.9530    0.9422 H         1 <0>         0.3966
     29 H10         3.8930    2.3102    0.8591 H         1 <0>         0.3950
@<TRIPOS>BOND
     1    1    6 ar
     2    1    2 ar
     3    1   20 1
     4    2    3 ar
     5    2   21 1
     6    3    4 ar
     7    3   19 1
     8    4    5 ar
     9    4   22 1
    10    5    6 ar
    11    5   23 1
    12    6    7 1
    13    7   16 ar
    14    7    8 ar
    15    8    9 ar
    16    8   24 1
    17    9   10 ar
    18    9   18 1
    19   10   15 ar
    20   10   11 ar
    21   11   12 ar
    22   11   25 1
    23   12   13 ar
    24   12   17 1
    25   13   14 ar
    26   13   26 1
    27   14   15 ar
    28   14   27 1
    29   15   16 ar
    30   17   28 1
    31   19   29 1
@<TRIPOS>MOLECULE
CHEMBL35151
   56    60     0     0     0
SMALL
USER_CHARGES

@<TRIPOS>ATOM
      1 C1         -0.7048    1.7654    0.5919 C.3       1 <0>        -0.1295
      2 C2         -0.6478    0.2564    0.3700 C.3       1 <0>        -0.0494
      3 C3         -1.9777   -0.3832    0.7085 C.3       1 <0>        -0.1038
      4 C4         -2.1892   -0.3346    2.2246 C.3       1 <0>        -0.1098
      5 C5         -1.0595   -1.0417    2.9707 C.3       1 <0>        -0.0397
      6 C6         -1.3437   -1.0057    4.4473 C.ar      1 <0>        -0.0606
      7 C7         -2.3666   -1.8168    4.9270 C.ar      1 <0>        -0.1010
      8 C8         -2.6806   -1.8335    6.2687 C.ar      1 <0>        -0.1344
      9 C9         -1.9678   -1.0350    7.1519 C.ar      1 <0>         0.1057
     10 C10        -0.9498   -0.2278    6.6748 C.ar      1 <0>        -0.1378
     11 C11        -0.6392   -0.2106    5.3218 C.ar      1 <0>        -0.0980
     12 C12         0.4723    0.6944    4.8696 C.3       1 <0>         0.1449
     13 C13         0.3964    0.9415    3.3550 C.3       1 <0>        -0.0617
     14 H1         -0.4874    1.5515    3.1624 H         1 <0>         0.1105
     15 C14         0.3004   -0.3963    2.6484 C.3       1 <0>        -0.0386
     16 C15         0.4754   -0.4302    1.1677 C.3       1 <0>        -0.0777
     17 C16         1.7334    0.1192    0.4996 C.3       1 <0>        -0.1197
     18 C17         1.3634    0.0321   -1.0129 C.3       1 <0>        -0.1575
     19 C18        -0.1829    0.0109   -1.0791 C.3       1 <0>         0.1052
     20 H2         -0.5404   -0.9581   -1.4176 H         1 <0>         0.0574
     21 O1         -0.6654    1.0552   -1.9226 O.3       1 <0>        -0.5567
     22 S1          1.8879    1.8521    2.8688 S.3       1 <0>        -0.0435
     23 C19         1.6527    3.4556    3.5604 C.ar      1 <0>        -0.0785
     24 C20         0.4478    3.7803    4.1719 C.ar      1 <0>        -0.1376
     25 C21         0.2668    5.0376    4.7133 C.ar      1 <0>        -0.0673
     26 C22         1.2836    5.9738    4.6473 C.ar      1 <0>        -0.1009
     27 C23         2.4845    5.6537    4.0391 C.ar      1 <0>        -0.0682
     28 C24         2.6737    4.3964    3.5004 C.ar      1 <0>        -0.0975
     29 Br1         1.0311    7.6947    5.3895 Br        1 <0>        -0.0487
     30 O2          1.7320    0.0978    5.1800 O.3       1 <0>        -0.5368
     31 O3         -2.2681   -1.0447    8.4772 O.3       1 <0>        -0.4979
     32 H3          0.2771    2.1981    0.4006 H         1 <0>         0.0642
     33 H4         -1.4344    2.2053   -0.0880 H         1 <0>         0.0641
     34 H5         -0.9979    1.9704    1.6215 H         1 <0>         0.0436
     35 H6         -2.7847    0.1586    0.2065 H         1 <0>         0.0710
     36 H7         -1.9850   -1.4220    0.3674 H         1 <0>         0.0637
     37 H8         -2.2561    0.6959    2.5622 H         1 <0>         0.0647
     38 H9         -3.1305   -0.8374    2.4641 H         1 <0>         0.0667
     39 H10        -1.0263   -2.0857    2.6418 H         1 <0>         0.0893
     40 H11        -2.9202   -2.4395    4.2396 H         1 <0>         0.1293
     41 H12        -3.4786   -2.4642    6.6317 H         1 <0>         0.1317
     42 H13        -0.3931    0.3933    7.3607 H         1 <0>         0.1275
     43 H14         0.3916    1.6527    5.3830 H         1 <0>         0.0701
     44 H15         1.0722   -1.0622    3.0910 H         1 <0>         0.0897
     45 H16         0.4404   -1.5190    0.8829 H         1 <0>         0.0691
     46 H17         1.9429    1.1500    0.7556 H         1 <0>         0.0956
     47 H18         2.5953   -0.5163    0.7110 H         1 <0>         0.0666
     48 H19         1.7502    0.9066   -1.5358 H         1 <0>         0.0746
     49 H20         1.7746   -0.8791   -1.4430 H         1 <0>         0.0662
     50 H21        -0.4083    0.9620   -2.8501 H         1 <0>         0.3747
     51 H22        -0.3463    3.0501    4.2233 H         1 <0>         0.1275
     52 H23        -0.6695    5.2906    5.1884 H         1 <0>         0.1342
     53 H24         3.2762    6.3866    3.9892 H         1 <0>         0.1375
     54 H25         3.6129    4.1456    3.0298 H         1 <0>         0.1366
     55 H26         1.8668   -0.0685    6.1230 H         1 <0>         0.3785
     56 H27        -1.7767   -1.7033    8.9870 H         1 <0>         0.3924
@<TRIPOS>BOND
     1    1    2 1
     2    1   32 1
     3    1   33 1
     4    1   34 1
     5    2   16 1
     6    2   19 1
     7    2    3 1
     8    3    4 1
     9    3   35 1
    10    3   36 1
    11    4    5 1
    12    4   37 1
    13    4   38 1
    14    5   15 1
    15    5    6 1
    16    5   39 1
    17    6   11 ar
    18    6    7 ar
    19    7    8 ar
    20    7   40 1
    21    8    9 ar
    22    8   41 1
    23    9   10 ar
    24    9   31 1
    25   10   11 ar
    26   10   42 1
    27   11   12 1
    28   12   13 1
    29   12   30 1
    30   12   43 1
    31   13   14 1
    32   13   15 1
    33   13   22 1
    34   15   16 1
    35   15   44 1
    36   16   17 1
    37   16   45 1
    38   17   18 1
    39   17   46 1
    40   17   47 1
    41   18   19 1
    42   18   48 1
    43   18   49 1
    44   19   20 1
    45   19   21 1
    46   21   50 1
    47   22   23 1
    48   23   28 ar
    49   23   24 ar
    50   24   25 ar
    51   24   51 1
    52   25   26 ar
    53   25   52 1
    54   26   27 ar
    55   26   29 1
    56   27   28 ar
    57   27   53 1
    58   28   54 1
    59   30   55 1
    60   31   56 1
@<TRIPOS>MOLECULE
CHEMBL35151__1
   56    60     0     0     0
SMALL
USER_CHARGES

@<TRIPOS>ATOM
      1 C1         -0.7033    1.7634    0.5608 C.3       1 <0>        -0.1272
      2 C2         -0.6464    0.2496    0.3463 C.3       1 <0>        -0.0417
      3 C3         -1.9869   -0.4198    0.6610 C.3       1 <0>        -0.1106
      4 C4         -2.2563   -0.3990    2.1629 C.3       1 <0>        -0.1117
      5 C5         -1.1717   -1.2197    2.8707 C.3       1 <0>        -0.0385
      6 C6         -1.4709   -1.2489    4.3486 C.ar      1 <0>        -0.0613
      7 C7         -2.4506   -2.1285    4.7917 C.ar      1 <0>        -0.1004
      8 C8         -2.7757   -2.2002    6.1294 C.ar      1 <0>        -0.1349
      9 C9         -2.1183   -1.3865    7.0412 C.ar      1 <0>         0.1053
     10 C10        -1.1407   -0.5120    6.5989 C.ar      1 <0>        -0.1384
     11 C11        -0.8130   -0.4436    5.2512 C.ar      1 <0>        -0.0977
     12 C12         0.2728    0.5180    4.8441 C.3       1 <0>         0.1498
     13 C13         0.2254    0.7801    3.3397 C.3       1 <0>        -0.0750
     14 H1         -0.6665    1.3571    3.0955 H         1 <0>         0.1144
     15 C14         0.1810   -0.5677    2.6165 C.3       1 <0>        -0.0457
     16 C15         0.4842   -0.4031    1.1611 C.3       1 <0>        -0.0804
     17 C16         0.7031   -1.7543    0.4546 C.3       1 <0>        -0.1166
     18 C17         0.5561   -1.4066   -1.0444 C.3       1 <0>        -0.1576
     19 C18        -0.2819   -0.1166   -1.1167 C.3       1 <0>         0.1052
     20 H2         -1.1886   -0.2913   -1.6958 H         1 <0>         0.0567
     21 O1          0.4847    0.9339   -1.7090 O.3       1 <0>        -0.5582
     22 S1          1.7052    1.6985    2.8325 S.3       1 <0>        -0.0479
     23 C19         1.4700    3.3016    3.5247 C.ar      1 <0>        -0.0726
     24 C20         0.2713    3.6205    4.1513 C.ar      1 <0>        -0.1373
     25 C21         0.0903    4.8776    4.6932 C.ar      1 <0>        -0.0674
     26 C22         1.1009    5.8194    4.6128 C.ar      1 <0>        -0.1011
     27 C23         2.2957    5.5050    3.9896 C.ar      1 <0>        -0.0678
     28 C24         2.4850    4.2479    3.4504 C.ar      1 <0>        -0.0973
     29 Br1         0.8485    7.5399    5.3557 Br        1 <0>        -0.0488
     30 O2          1.5448   -0.0364    5.1855 O.3       1 <0>        -0.5375
     31 O3         -2.4331   -1.4476    8.3618 O.3       1 <0>        -0.4981
     32 H3          0.2817    2.1934    0.3788 H         1 <0>         0.0747
     33 H4         -1.4241    2.2014   -0.1296 H         1 <0>         0.0522
     34 H5         -1.0078    1.9739    1.5859 H         1 <0>         0.0461
     35 H6         -2.7852    0.1138    0.1452 H         1 <0>         0.0676
     36 H7         -1.9631   -1.4529    0.3142 H         1 <0>         0.0680
     37 H8         -2.2308    0.6289    2.5245 H         1 <0>         0.0660
     38 H9         -3.2345   -0.8353    2.3647 H         1 <0>         0.0708
     39 H10        -1.1669   -2.2355    2.4755 H         1 <0>         0.0941
     40 H11        -2.9624   -2.7614    4.0818 H         1 <0>         0.1294
     41 H12        -3.5387   -2.8863    6.4662 H         1 <0>         0.1314
     42 H13        -0.6290    0.1224    7.3076 H         1 <0>         0.1273
     43 H14         0.1373    1.4591    5.3770 H         1 <0>         0.0692
     44 H15         0.9513   -1.2076    3.0468 H         1 <0>         0.0896
     45 H16         1.3908    0.1922    1.0526 H         1 <0>         0.0921
     46 H17         1.7013   -2.1390    0.6633 H         1 <0>         0.0691
     47 H18        -0.0577   -2.4735    0.7581 H         1 <0>         0.0687
     48 H19         1.5381   -1.2392   -1.4869 H         1 <0>         0.0745
     49 H20         0.0436   -2.2145   -1.5666 H         1 <0>         0.0677
     50 H21         0.7434    0.7637   -2.6250 H         1 <0>         0.3748
     51 H22        -0.5180    2.8861    4.2140 H         1 <0>         0.1272
     52 H23        -0.8412    5.1262    5.1799 H         1 <0>         0.1342
     53 H24         3.0826    6.2422    3.9285 H         1 <0>         0.1377
     54 H25         3.4194    4.0016    2.9680 H         1 <0>         0.1368
     55 H26         1.6563   -0.2129    6.1297 H         1 <0>         0.3787
     56 H27        -1.9118   -2.0911    8.8610 H         1 <0>         0.3923
@<TRIPOS>BOND
     1    1    2 1
     2    1   32 1
     3    1   33 1
     4    1   34 1
     5    2   16 1
     6    2   19 1
     7    2    3 1
     8    3    4 1
     9    3   35 1
    10    3   36 1
    11    4    5 1
    12    4   37 1
    13    4   38 1
    14    5   15 1
    15    5    6 1
    16    5   39 1
    17    6   11 ar
    18    6    7 ar
    19    7    8 ar
    20    7   40 1
    21    8    9 ar
    22    8   41 1
    23    9   10 ar
    24    9   31 1
    25   10   11 ar
    26   10   42 1
    27   11   12 1
    28   12   13 1
    29   12   30 1
    30   12   43 1
    31   13   14 1
    32   13   15 1
    33   13   22 1
    34   15   16 1
    35   15   44 1
    36   16   17 1
    37   16   45 1
    38   17   18 1
    39   17   46 1
    40   17   47 1
    41   18   19 1
    42   18   48 1
    43   18   49 1
    44   19   20 1
    45   19   21 1
    46   21   50 1
    47   22   23 1
    48   23   28 ar
    49   23   24 ar
    50   24   25 ar
    51   24   51 1
    52   25   26 ar
    53   25   52 1
    54   26   27 ar
    55   26   29 1
    56   27   28 ar
    57   27   53 1
    58   28   54 1
    59   30   55 1
    60   31   56 1
@<TRIPOS>MOLECULE
CHEMBL35151__2
   56    60     0     0     0
SMALL
USER_CHARGES

@<TRIPOS>ATOM
      1 C1          0.5423    1.7399    0.1130 C.3       1 <0>        -0.1373
      2 C2          0.9249    0.2603    0.0412 C.3       1 <0>        -0.0560
      3 C3         -0.3000   -0.5657   -0.2920 C.3       1 <0>        -0.1044
      4 C4         -1.3773   -0.2472    0.7624 C.3       1 <0>        -0.1123
      5 C5         -0.8570   -0.5307    2.1642 C.3       1 <0>        -0.0482
      6 C6         -1.8838   -0.2177    3.2139 C.ar      1 <0>        -0.0607
      7 C7         -3.2218   -0.4271    2.9086 C.ar      1 <0>        -0.1015
      8 C8         -4.2040   -0.1654    3.8398 C.ar      1 <0>        -0.1377
      9 C9         -3.8512    0.3107    5.0943 C.ar      1 <0>         0.1057
     10 C10        -2.5178    0.5238    5.3970 C.ar      1 <0>        -0.1386
     11 C11        -1.5294    0.2653    4.4565 C.ar      1 <0>        -0.0873
     12 C12        -0.1029    0.5478    4.8477 C.3       1 <0>         0.1518
     13 C13         0.8801   -0.1012    3.8744 C.3       1 <0>        -0.0675
     14 H1          1.8831    0.2871    4.0513 H         1 <0>         0.1069
     15 C14         0.4386    0.2395    2.4508 C.3       1 <0>        -0.0526
     16 C15         1.4586   -0.2075    1.4240 C.3       1 <0>        -0.0844
     17 C16         2.8264    0.4822    1.4739 C.3       1 <0>        -0.1132
     18 C17         3.3680    0.2872    0.0313 C.3       1 <0>        -0.1551
     19 C18         2.1290    0.0874   -0.8771 C.3       1 <0>         0.1115
     20 H2          2.1344   -0.9135   -1.3087 H         1 <0>         0.0593
     21 O1          2.1088    1.0735   -1.9112 O.3       1 <0>        -0.5596
     22 S1          0.8712   -1.9005    4.1047 S.3       1 <0>        -0.0695
     23 C19         1.8413   -2.1495    5.5544 C.ar      1 <0>        -0.0589
     24 C20         2.5097   -1.0796    6.1371 C.ar      1 <0>        -0.0945
     25 C21         3.2687   -1.2780    7.2735 C.ar      1 <0>        -0.0767
     26 C22         3.3641   -2.5404    7.8319 C.ar      1 <0>        -0.0984
     27 C23         2.6997   -3.6079    7.2540 C.ar      1 <0>        -0.0766
     28 C24         1.9349   -3.4151    6.1207 C.ar      1 <0>        -0.1006
     29 Br1         4.4052   -2.8077    9.3878 Br        1 <0>        -0.0542
     30 O2          0.1320    0.0354    6.1608 O.3       1 <0>        -0.5462
     31 O3         -4.8109    0.5672    6.0217 O.3       1 <0>        -0.4994
     32 H3          1.4034    2.3223    0.4408 H         1 <0>         0.0555
     33 H4          0.2263    2.0818   -0.8725 H         1 <0>         0.0641
     34 H5         -0.2753    1.8698    0.8221 H         1 <0>         0.0583
     35 H6         -0.6648   -0.3022   -1.2848 H         1 <0>         0.0717
     36 H7         -0.0513   -1.6264   -0.2580 H         1 <0>         0.0663
     37 H8         -1.6532    0.8046    0.6876 H         1 <0>         0.0734
     38 H9         -2.2569   -0.8629    0.5744 H         1 <0>         0.0705
     39 H10        -0.6369   -1.5960    2.2326 H         1 <0>         0.0895
     40 H11        -3.4958   -0.7990    1.9323 H         1 <0>         0.1308
     41 H12        -5.2427   -0.3298    3.5940 H         1 <0>         0.1301
     42 H13        -2.2433    0.8939    6.3737 H         1 <0>         0.1240
     43 H14         0.0589    1.6257    4.8524 H         1 <0>         0.0767
     44 H15         0.2563    1.3110    2.3684 H         1 <0>         0.1012
     45 H16         1.5619   -1.2923    1.4486 H         1 <0>         0.0907
     46 H17         2.7157    1.5418    1.7042 H         1 <0>         0.0713
     47 H18         3.4777   -0.0051    2.1994 H         1 <0>         0.0678
     48 H19         3.9234    1.1710   -0.2825 H         1 <0>         0.0739
     49 H20         4.0093   -0.5931   -0.0117 H         1 <0>         0.0691
     50 H21         2.8519    1.0129   -2.5270 H         1 <0>         0.3761
     51 H22         2.4360   -0.0941    5.7015 H         1 <0>         0.1292
     52 H23         3.7888   -0.4470    7.7267 H         1 <0>         0.1306
     53 H24         2.7762   -4.5920    7.6923 H         1 <0>         0.1338
     54 H25         1.4129   -4.2477    5.6727 H         1 <0>         0.1314
     55 H26        -0.4359    0.4220    6.8413 H         1 <0>         0.3789
     56 H27        -5.0238   -0.1881    6.5867 H         1 <0>         0.3919
@<TRIPOS>BOND
     1    1    2 1
     2    1   32 1
     3    1   33 1
     4    1   34 1
     5    2   16 1
     6    2   19 1
     7    2    3 1
     8    3    4 1
     9    3   35 1
    10    3   36 1
    11    4    5 1
    12    4   37 1
    13    4   38 1
    14    5   15 1
    15    5    6 1
    16    5   39 1
    17    6   11 ar
    18    6    7 ar
    19    7    8 ar
    20    7   40 1
    21    8    9 ar
    22    8   41 1
    23    9   10 ar
    24    9   31 1
    25   10   11 ar
    26   10   42 1
    27   11   12 1
    28   12   13 1
    29   12   30 1
    30   12   43 1
    31   13   14 1
    32   13   15 1
    33   13   22 1
    34   15   16 1
    35   15   44 1
    36   16   17 1
    37   16   45 1
    38   17   18 1
    39   17   46 1
    40   17   47 1
    41   18   19 1
    42   18   48 1
    43   18   49 1
    44   19   20 1
    45   19   21 1
    46   21   50 1
    47   22   23 1
    48   23   28 ar
    49   23   24 ar
    50   24   25 ar
    51   24   51 1
    52   25   26 ar
    53   25   52 1
    54   26   27 ar
    55   26   29 1
    56   27   28 ar
    57   27   53 1
    58   28   54 1
    59   30   55 1
    60   31   56 1
@<TRIPOS>MOLECULE
CHEMBL35151__3
   56    60     0     0     0
SMALL
USER_CHARGES

@<TRIPOS>ATOM
      1 C1          0.0580    1.8849    0.5364 C.3       1 <0>        -0.1286
      2 C2          0.2924    0.3848    0.3480 C.3       1 <0>        -0.0405
      3 C3         -0.9719   -0.3238   -0.1404 C.3       1 <0>        -0.1107
      4 C4         -2.0082   -0.4482    0.9754 C.3       1 <0>        -0.1092
      5 C5         -1.3964   -1.2842    2.1013 C.3       1 <0>        -0.0480
      6 C6         -2.4060   -1.5546    3.1811 C.ar      1 <0>        -0.0605
      7 C7         -3.7100   -1.8444    2.8023 C.ar      1 <0>        -0.1005
      8 C8         -4.6744   -2.1093    3.7512 C.ar      1 <0>        -0.1380
      9 C9         -4.3379   -2.0867    5.0971 C.ar      1 <0>         0.1058
     10 C10        -3.0389   -1.7943    5.4745 C.ar      1 <0>        -0.1385
     11 C11        -2.0696   -1.5226    4.5181 C.ar      1 <0>        -0.0871
     12 C12        -0.6837   -1.1890    5.0041 C.3       1 <0>         0.1523
     13 C13         0.3377   -1.2884    3.8717 C.3       1 <0>        -0.0665
     14 H1          1.2841   -0.8520    4.1909 H         1 <0>         0.1059
     15 C14        -0.2055   -0.5177    2.6683 C.3       1 <0>        -0.0500
     16 C15         0.8350   -0.2706    1.6331 C.3       1 <0>        -0.0747
     17 C16         1.4666   -1.5803    1.1262 C.3       1 <0>        -0.1166
     18 C17         2.1424   -1.1644   -0.2008 C.3       1 <0>        -0.1598
     19 C18         1.4160    0.1042   -0.6852 C.3       1 <0>         0.1044
     20 H2          0.9838   -0.0655   -1.6714 H         1 <0>         0.0572
     21 O1          2.3269    1.2043   -0.7305 O.3       1 <0>        -0.5616
     22 S1          0.5867   -3.0284    3.4234 S.3       1 <0>        -0.0617
     23 C19         1.6469   -3.6467    4.6877 C.ar      1 <0>        -0.0624
     24 C20         2.1924   -2.7782    5.6254 C.ar      1 <0>        -0.0953
     25 C21         3.0225   -3.2660    6.6152 C.ar      1 <0>        -0.0763
     26 C22         3.3114   -4.6180    6.6739 C.ar      1 <0>        -0.0990
     27 C23         2.7699   -5.4854    5.7416 C.ar      1 <0>        -0.0764
     28 C24         1.9348   -5.0046    4.7525 C.ar      1 <0>        -0.1014
     29 Br1         4.4492   -5.2815    8.0307 Br        1 <0>        -0.0547
     30 O2         -0.3202   -2.0992    6.0440 O.3       1 <0>        -0.5463
     31 O3         -5.2796   -2.3510    6.0405 O.3       1 <0>        -0.4994
     32 H3          0.9985    2.3695    0.7989 H         1 <0>         0.0668
     33 H4         -0.3244    2.3121   -0.3906 H         1 <0>         0.0548
     34 H5         -0.6669    2.0420    1.3351 H         1 <0>         0.0517
     35 H6         -1.4027    0.2438   -0.9653 H         1 <0>         0.0679
     36 H7         -0.7079   -1.3203   -0.4945 H         1 <0>         0.0669
     37 H8         -2.2657    0.5423    1.3506 H         1 <0>         0.0710
     38 H9         -2.9020   -0.9420    0.5943 H         1 <0>         0.0731
     39 H10        -1.0524   -2.2360    1.6968 H         1 <0>         0.0957
     40 H11        -3.9712   -1.8623    1.7546 H         1 <0>         0.1303
     41 H12        -5.6868   -2.3328    3.4484 H         1 <0>         0.1301
     42 H13        -2.7769   -1.7772    6.5221 H         1 <0>         0.1240
     43 H14        -0.6790   -0.1740    5.4014 H         1 <0>         0.0770
     44 H15        -0.5557    0.4554    3.0128 H         1 <0>         0.0866
     45 H16         1.6213    0.3547    2.0560 H         1 <0>         0.0791
     46 H17         2.2078   -1.9487    1.8355 H         1 <0>         0.0782
     47 H18         0.6985   -2.3325    0.9465 H         1 <0>         0.0744
     48 H19         3.1974   -0.9488   -0.0311 H         1 <0>         0.0725
     49 H20         2.0373   -1.9597   -0.9387 H         1 <0>         0.0673
     50 H21         3.0526    1.0883   -1.3590 H         1 <0>         0.3760
     51 H22         1.9676   -1.7229    5.5799 H         1 <0>         0.1287
     52 H23         3.4470   -2.5915    7.3441 H         1 <0>         0.1303
     53 H24         2.9973   -6.5400    5.7902 H         1 <0>         0.1334
     54 H25         1.5088   -5.6828    4.0279 H         1 <0>         0.1310
     55 H26        -0.9083   -2.0752    6.8111 H         1 <0>         0.3792
     56 H27        -5.3479   -3.2862    6.2769 H         1 <0>         0.3919
@<TRIPOS>BOND
     1    1    2 1
     2    1   32 1
     3    1   33 1
     4    1   34 1
     5    2   16 1
     6    2   19 1
     7    2    3 1
     8    3    4 1
     9    3   35 1
    10    3   36 1
    11    4    5 1
    12    4   37 1
    13    4   38 1
    14    5   15 1
    15    5    6 1
    16    5   39 1
    17    6   11 ar
    18    6    7 ar
    19    7    8 ar
    20    7   40 1
    21    8    9 ar
    22    8   41 1
    23    9   10 ar
    24    9   31 1
    25   10   11 ar
    26   10   42 1
    27   11   12 1
    28   12   13 1
    29   12   30 1
    30   12   43 1
    31   13   14 1
    32   13   15 1
    33   13   22 1
    34   15   16 1
    35   15   44 1
    36   16   17 1
    37   16   45 1
    38   17   18 1
    39   17   46 1
    40   17   47 1
    41   18   19 1
    42   18   48 1
    43   18   49 1
    44   19   20 1
    45   19   21 1
    46   21   50 1
    47   22   23 1
    48   23   28 ar
    49   23   24 ar
    50   24   25 ar
    51   24   51 1
    52   25   26 ar
    53   25   52 1
    54   26   27 ar
    55   26   29 1
    56   27   28 ar
    57   27   53 1
    58   28   54 1
    59   30   55 1
    60   31   56 1
@<TRIPOS>MOLECULE
CHEMBL35151__4
   56    60     0     0     0
SMALL
USER_CHARGES

@<TRIPOS>ATOM
      1 C1          0.4770    1.8091   -0.2831 C.3       1 <0>        -0.1329
      2 C2          0.6850    0.3152   -0.5129 C.3       1 <0>        -0.0445
      3 C3         -0.6291   -0.3916   -0.7868 C.3       1 <0>        -0.1040
      4 C4         -1.4537   -0.4476    0.5024 C.3       1 <0>        -0.1099
      5 C5         -0.7001   -1.1438    1.6330 C.3       1 <0>        -0.0410
      6 C6         -1.5699   -1.1813    2.8596 C.ar      1 <0>        -0.0699
      7 C7         -2.6604   -2.0436    2.8457 C.ar      1 <0>        -0.0976
      8 C8         -3.4982   -2.1336    3.9356 C.ar      1 <0>        -0.1368
      9 C9         -3.2522   -1.3566    5.0583 C.ar      1 <0>         0.1088
     10 C10        -2.1666   -0.4973    5.0724 C.ar      1 <0>        -0.1375
     11 C11        -1.3291   -0.4031    3.9695 C.ar      1 <0>        -0.0965
     12 C12        -0.1779    0.5619    4.0374 C.3       1 <0>         0.1310
     13 C13         0.3340    0.8832    2.6228 C.3       1 <0>        -0.0616
     14 H1         -0.4525    1.4343    2.1050 H         1 <0>         0.1368
     15 C14         0.6334   -0.4281    1.9233 C.3       1 <0>        -0.0697
     16 C15         1.4022   -0.4016    0.6459 C.3       1 <0>        -0.0713
     17 C16         2.8349    0.0990    0.5792 C.3       1 <0>        -0.1249
     18 C17         3.0720    0.4128   -0.9241 C.3       1 <0>        -0.1537
     19 C18         1.7267    0.1304   -1.6423 C.3       1 <0>         0.1036
     20 H2          1.6898   -0.8871   -2.0216 H         1 <0>         0.0600
     21 O1          1.4943    1.0781   -2.6851 O.3       1 <0>        -0.5566
     22 S1          1.8095    1.9231    2.7846 S.3       1 <0>        -0.0535
     23 C19         2.9922    0.8682    3.5547 C.ar      1 <0>        -0.0676
     24 C20         2.6018   -0.3691    4.0524 C.ar      1 <0>        -0.1552
     25 C21         3.5311   -1.1938    4.6549 C.ar      1 <0>        -0.0686
     26 C22         4.8499   -0.7893    4.7633 C.ar      1 <0>        -0.0987
     27 C23         5.2419    0.4422    4.2687 C.ar      1 <0>        -0.0673
     28 C24         4.3185    1.2692    3.6604 C.ar      1 <0>        -0.0971
     29 Br1         6.1192   -1.9215    5.5897 Br        1 <0>        -0.0481
     30 O2         -0.6015    1.7746    4.6597 O.3       1 <0>        -0.5403
     31 O3         -4.0727   -1.4379    6.1386 O.3       1 <0>        -0.4972
     32 H3          1.4171    2.2628    0.0307 H         1 <0>         0.0658
     33 H4          0.1396    2.2755   -1.2087 H         1 <0>         0.0656
     34 H5         -0.2743    1.9561    0.4928 H         1 <0>         0.0477
     35 H6         -1.1841    0.1507   -1.5566 H         1 <0>         0.0722
     36 H7         -0.4324   -1.4076   -1.1421 H         1 <0>         0.0628
     37 H8         -1.7261    0.5574    0.8146 H         1 <0>         0.0665
     38 H9         -2.3744   -1.0056    0.3064 H         1 <0>         0.0664
     39 H10        -0.4747   -2.1681    1.3248 H         1 <0>         0.0886
     40 H11        -2.8514   -2.6477    1.9713 H         1 <0>         0.1298
     41 H12        -4.3434   -2.8062    3.9160 H         1 <0>         0.1320
     42 H13        -1.9720    0.0994    5.9512 H         1 <0>         0.1275
     43 H14         0.6355    0.1218    4.6109 H         1 <0>         0.0862
     44 H15         1.1866   -1.0701    2.6385 H         1 <0>         0.0875
     45 H16         1.4677   -1.4833    0.3294 H         1 <0>         0.0643
     46 H17         3.0071    0.9861    1.1688 H         1 <0>         0.0947
     47 H18         3.5211   -0.6950    0.8945 H         1 <0>         0.0573
     48 H19         3.3574    1.4573   -1.0441 H         1 <0>         0.0761
     49 H20         3.8527   -0.2365   -1.3180 H         1 <0>         0.0615
     50 H21         2.1163    1.0120   -3.4225 H         1 <0>         0.3753
     51 H22         1.5725   -0.6853    3.9685 H         1 <0>         0.1517
     52 H23         3.2282   -2.1554    5.0423 H         1 <0>         0.1340
     53 H24         6.2720    0.7550    4.3548 H         1 <0>         0.1379
     54 H25         4.6260    2.2283    3.2705 H         1 <0>         0.1373
     55 H26        -0.9283    1.6600    5.5625 H         1 <0>         0.3806
     56 H27        -3.8057   -2.1048    6.7859 H         1 <0>         0.3923
@<TRIPOS>BOND
     1    1    2 1
     2    1   32 1
     3    1   33 1
     4    1   34 1
     5    2   16 1
     6    2   19 1
     7    2    3 1
     8    3    4 1
     9    3   35 1
    10    3   36 1
    11    4    5 1
    12    4   37 1
    13    4   38 1
    14    5   15 1
    15    5    6 1
    16    5   39 1
    17    6   11 ar
    18    6    7 ar
    19    7    8 ar
    20    7   40 1
    21    8    9 ar
    22    8   41 1
    23    9   10 ar
    24    9   31 1
    25   10   11 ar
    26   10   42 1
    27   11   12 1
    28   12   13 1
    29   12   30 1
    30   12   43 1
    31   13   14 1
    32   13   15 1
    33   13   22 1
    34   15   16 1
    35   15   44 1
    36   16   17 1
    37   16   45 1
    38   17   18 1
    39   17   46 1
    40   17   47 1
    41   18   19 1
    42   18   48 1
    43   18   49 1
    44   19   20 1
    45   19   21 1
    46   21   50 1
    47   22   23 1
    48   23   28 ar
    49   23   24 ar
    50   24   25 ar
    51   24   51 1
    52   25   26 ar
    53   25   52 1
    54   26   27 ar
    55   26   29 1
    56   27   28 ar
    57   27   53 1
    58   28   54 1
    59   30   55 1
    60   31   56 1
@<TRIPOS>MOLECULE
CHEMBL35151__5
   56    60     0     0     0
SMALL
USER_CHARGES

@<TRIPOS>ATOM
      1 C1          0.4802    1.8243   -0.2415 C.3       1 <0>        -0.1295
      2 C2          0.6964    0.3272   -0.4709 C.3       1 <0>        -0.0398
      3 C3         -0.6172   -0.3958   -0.7806 C.3       1 <0>        -0.1108
      4 C4         -1.4958   -0.4672    0.4651 C.3       1 <0>        -0.1110
      5 C5         -0.7724   -1.2959    1.5330 C.3       1 <0>        -0.0377
      6 C6         -1.6654   -1.4167    2.7423 C.ar      1 <0>        -0.0693
      7 C7         -2.6962   -2.3467    2.6934 C.ar      1 <0>        -0.0973
      8 C8         -3.5514   -2.5026    3.7633 C.ar      1 <0>        -0.1370
      9 C9         -3.3809   -1.7236    4.8989 C.ar      1 <0>         0.1085
     10 C10        -2.3521   -0.7988    4.9475 C.ar      1 <0>        -0.1385
     11 C11        -1.4902   -0.6456    3.8696 C.ar      1 <0>        -0.0972
     12 C12        -0.3825    0.3672    3.9992 C.3       1 <0>         0.1374
     13 C13         0.1965    0.7122    2.6281 C.3       1 <0>        -0.0716
     14 H1         -0.5361    1.2771    2.0517 H         1 <0>         0.1392
     15 C14         0.5276   -0.5934    1.9020 C.3       1 <0>        -0.0802
     16 C15         1.4080   -0.3387    0.7200 C.3       1 <0>        -0.0846
     17 C16         1.9705   -1.6413    0.1205 C.3       1 <0>        -0.1155
     18 C17         2.4530   -1.2140   -1.2846 C.3       1 <0>        -0.1565
     19 C18         1.6616    0.0542   -1.6545 C.3       1 <0>         0.1058
     20 H2          1.0937   -0.1126   -2.5698 H         1 <0>         0.0565
     21 O1          2.5540    1.1574   -1.8243 O.3       1 <0>        -0.5579
     22 S1          1.7052    1.6985    2.8325 S.3       1 <0>        -0.0573
     23 C19         2.8338    0.5940    3.6143 C.ar      1 <0>        -0.0700
     24 C20         2.3883   -0.6308    4.0965 C.ar      1 <0>        -0.1546
     25 C21         3.2753   -1.4942    4.7083 C.ar      1 <0>        -0.0690
     26 C22         4.6066   -1.1411    4.8414 C.ar      1 <0>        -0.0986
     27 C23         5.0534    0.0778    4.3623 C.ar      1 <0>        -0.0681
     28 C24         4.1724    0.9435    3.7449 C.ar      1 <0>        -0.0951
     29 Br1         5.8178   -2.3263    5.6804 Br        1 <0>        -0.0480
     30 O2         -0.8986    1.5544    4.6045 O.3       1 <0>        -0.5435
     31 O3         -4.2196   -1.8684    5.9585 O.3       1 <0>        -0.4975
     32 H3          1.4162    2.2815    0.0796 H         1 <0>         0.0738
     33 H4          0.1480    2.2899   -1.1693 H         1 <0>         0.0539
     34 H5         -0.2774    1.9682    0.5288 H         1 <0>         0.0491
     35 H6         -1.1483    0.1436   -1.5648 H         1 <0>         0.0676
     36 H7         -0.3987   -1.4067   -1.1249 H         1 <0>         0.0672
     37 H8         -1.6757    0.5391    0.8434 H         1 <0>         0.0689
     38 H9         -2.4452   -0.9411    0.2159 H         1 <0>         0.0705
     39 H10        -0.5515   -2.2874    1.1375 H         1 <0>         0.0932
     40 H11        -2.8289   -2.9526    1.8093 H         1 <0>         0.1299
     41 H12        -4.3506   -3.2275    3.7177 H         1 <0>         0.1318
     42 H13        -2.2190   -0.1914    5.8305 H         1 <0>         0.1270
     43 H14         0.4067   -0.0425    4.6295 H         1 <0>         0.0845
     44 H15         1.0747   -1.2349    2.5928 H         1 <0>         0.0892
     45 H16         2.2454    0.2867    1.0295 H         1 <0>         0.0990
     46 H17         2.8050   -2.0094    0.7173 H         1 <0>         0.0664
     47 H18         1.1890   -2.3974    0.0443 H         1 <0>         0.0674
     48 H19         3.5205   -0.9947   -1.2622 H         1 <0>         0.0738
     49 H20         2.2489   -2.0051   -2.0061 H         1 <0>         0.0672
     50 H21         3.1831    1.0462   -2.5502 H         1 <0>         0.3745
     51 H22         1.3493   -0.9068    3.9932 H         1 <0>         0.1506
     52 H23         2.9296   -2.4461    5.0835 H         1 <0>         0.1341
     53 H24         6.0930    0.3506    4.4677 H         1 <0>         0.1382
     54 H25         4.5226    1.8928    3.3671 H         1 <0>         0.1379
     55 H26        -1.2674    1.4171    5.4878 H         1 <0>         0.3806
     56 H27        -3.9261   -2.5241    6.6057 H         1 <0>         0.3923
@<TRIPOS>BOND
     1    1    2 1
     2    1   32 1
     3    1   33 1
     4    1   34 1
     5    2   16 1
     6    2   19 1
     7    2    3 1
     8    3    4 1
     9    3   35 1
    10    3   36 1
    11    4    5 1
    12    4   37 1
    13    4   38 1
    14    5   15 1
    15    5    6 1
    16    5   39 1
    17    6   11 ar
    18    6    7 ar
    19    7    8 ar
    20    7   40 1
    21    8    9 ar
    22    8   41 1
    23    9   10 ar
    24    9   31 1
    25   10   11 ar
    26   10   42 1
    27   11   12 1
    28   12   13 1
    29   12   30 1
    30   12   43 1
    31   13   14 1
    32   13   15 1
    33   13   22 1
    34   15   16 1
    35   15   44 1
    36   16   17 1
    37   16   45 1
    38   17   18 1
    39   17   46 1
    40   17   47 1
    41   18   19 1
    42   18   48 1
    43   18   49 1
    44   19   20 1
    45   19   21 1
    46   21   50 1
    47   22   23 1
    48   23   28 ar
    49   23   24 ar
    50   24   25 ar
    51   24   51 1
    52   25   26 ar
    53   25   52 1
    54   26   27 ar
    55   26   29 1
    56   27   28 ar
    57   27   53 1
    58   28   54 1
    59   30   55 1
    60   31   56 1
@<TRIPOS>MOLECULE
CHEMBL35151__6
   56    60     0     0     0
SMALL
USER_CHARGES

@<TRIPOS>ATOM
      1 C1         -0.0187    1.5258    0.0104 C.3       1 <0>        -0.1367
      2 C2          0.0021   -0.0041    0.0020 C.3       1 <0>        -0.0538
      3 C3         -1.4142   -0.5425    0.0489 C.3       1 <0>        -0.1030
      4 C4         -2.0973    0.0441    1.2988 C.3       1 <0>        -0.1117
      5 C5         -1.3125   -0.3073    2.5542 C.3       1 <0>        -0.0505
      6 C6         -1.9532    0.2484    3.7920 C.ar      1 <0>        -0.0515
      7 C7         -3.3392    0.3150    3.8423 C.ar      1 <0>        -0.1036
      8 C8         -3.9791    0.8068    4.9598 C.ar      1 <0>        -0.1342
      9 C9         -3.2305    1.2392    6.0452 C.ar      1 <0>         0.1038
     10 C10        -1.8490    1.1771    5.9934 C.ar      1 <0>        -0.1389
     11 C11        -1.2051    0.6857    4.8656 C.ar      1 <0>        -0.0948
     12 C12         0.3008    0.6692    4.8730 C.3       1 <0>         0.1451
     13 C13         0.8511   -0.2163    3.7555 C.3       1 <0>        -0.0684
     14 H1          1.9240   -0.0538    3.6522 H         1 <0>         0.1111
     15 C14         0.1446    0.1628    2.4542 C.3       1 <0>        -0.0481
     16 C15         0.7512   -0.5345    1.2564 C.3       1 <0>        -0.0865
     17 C16         2.2091   -0.2046    0.9567 C.3       1 <0>        -0.1135
     18 C17         2.3295   -0.2454   -0.5872 C.3       1 <0>        -0.1549
     19 C18         0.8992   -0.5108   -1.1319 C.3       1 <0>         0.1103
     20 H2          0.7424   -1.5760   -1.3012 H         1 <0>         0.0624
     21 O1          0.6684    0.2327   -2.3302 O.3       1 <0>        -0.5583
     22 S1          0.5308   -1.9594    4.1419 S.3       1 <0>        -0.0653
     23 C19         1.4931   -2.2595    5.5871 C.ar      1 <0>        -0.0779
     24 C20         2.2515   -1.2366    6.1434 C.ar      1 <0>        -0.1381
     25 C21         3.0042   -1.4748    7.2763 C.ar      1 <0>        -0.0682
     26 C22         3.0038   -2.7306    7.8575 C.ar      1 <0>        -0.0979
     27 C23         2.2496   -3.7513    7.3060 C.ar      1 <0>        -0.0694
     28 C24         1.4907   -3.5181    6.1763 C.ar      1 <0>        -0.0951
     29 Br1         4.0365   -3.0526    9.4086 Br        1 <0>        -0.0459
     30 O2          0.7844    2.0020    4.6951 O.3       1 <0>        -0.5514
     31 O3         -3.8511    1.7218    7.1537 O.3       1 <0>        -0.4987
     32 H3          1.0039    1.9031    0.0027 H         1 <0>         0.0557
     33 H4         -0.5459    1.8868   -0.8726 H         1 <0>         0.0619
     34 H5         -0.5289    1.8773    0.9072 H         1 <0>         0.0602
     35 H6         -1.9557   -0.2363   -0.8461 H         1 <0>         0.0725
     36 H7         -1.3938   -1.6303    0.1152 H         1 <0>         0.0651
     37 H8         -2.1534    1.1283    1.2019 H         1 <0>         0.0727
     38 H9         -3.1059   -0.3612    1.3804 H         1 <0>         0.0700
     39 H10        -1.3075   -1.3927    2.6533 H         1 <0>         0.0883
     40 H11        -3.9216   -0.0223    2.9977 H         1 <0>         0.1314
     41 H12        -5.0576    0.8556    4.9903 H         1 <0>         0.1309
     42 H13        -1.2662    1.5137    6.8381 H         1 <0>         0.1247
     43 H14         0.6490    0.2894    5.8335 H         1 <0>         0.0753
     44 H15         0.1741    1.2443    2.3212 H         1 <0>         0.1112
     45 H16         0.6224   -1.6140    1.3350 H         1 <0>         0.0842
     46 H17         2.4554    0.7900    1.3285 H         1 <0>         0.0697
     47 H18         2.8651   -0.9498    1.4065 H         1 <0>         0.0671
     48 H19         2.7000    0.7100   -0.9588 H         1 <0>         0.0748
     49 H20         3.0000   -1.0500   -0.8889 H         1 <0>         0.0656
     50 H21         1.2119   -0.0490   -3.0787 H         1 <0>         0.3766
     51 H22         2.2525   -0.2564    5.6900 H         1 <0>         0.1373
     52 H23         3.5941   -0.6803    7.7089 H         1 <0>         0.1362
     53 H24         2.2514   -4.7303    7.7620 H         1 <0>         0.1389
     54 H25         0.8987   -4.3139    5.7489 H         1 <0>         0.1374
     55 H26         0.4993    2.6189    5.3830 H         1 <0>         0.3841
     56 H27        -4.0548    1.0470    7.8157 H         1 <0>         0.3915
@<TRIPOS>BOND
     1    1    2 1
     2    1   32 1
     3    1   33 1
     4    1   34 1
     5    2   16 1
     6    2   19 1
     7    2    3 1
     8    3    4 1
     9    3   35 1
    10    3   36 1
    11    4    5 1
    12    4   37 1
    13    4   38 1
    14    5   15 1
    15    5    6 1
    16    5   39 1
    17    6   11 ar
    18    6    7 ar
    19    7    8 ar
    20    7   40 1
    21    8    9 ar
    22    8   41 1
    23    9   10 ar
    24    9   31 1
    25   10   11 ar
    26   10   42 1
    27   11   12 1
    28   12   13 1
    29   12   30 1
    30   12   43 1
    31   13   14 1
    32   13   15 1
    33   13   22 1
    34   15   16 1
    35   15   44 1
    36   16   17 1
    37   16   45 1
    38   17   18 1
    39   17   46 1
    40   17   47 1
    41   18   19 1
    42   18   48 1
    43   18   49 1
    44   19   20 1
    45   19   21 1
    46   21   50 1
    47   22   23 1
    48   23   28 ar
    49   23   24 ar
    50   24   25 ar
    51   24   51 1
    52   25   26 ar
    53   25   52 1
    54   26   27 ar
    55   26   29 1
    56   27   28 ar
    57   27   53 1
    58   28   54 1
    59   30   55 1
    60   31   56 1
@<TRIPOS>MOLECULE
CHEMBL35151__7
   56    60     0     0     0
SMALL
USER_CHARGES

@<TRIPOS>ATOM
      1 C1         -0.0187    1.5258    0.0104 C.3       1 <0>        -0.1283
      2 C2          0.0021   -0.0041    0.0020 C.3       1 <0>        -0.0405
      3 C3         -1.4088   -0.5839   -0.1104 C.3       1 <0>        -0.1102
      4 C4         -2.1821   -0.4274    1.1980 C.3       1 <0>        -0.1090
      5 C5         -1.4339   -1.1981    2.2875 C.3       1 <0>        -0.0494
      6 C6         -2.2054   -1.1932    3.5771 C.ar      1 <0>        -0.0514
      7 C7         -3.5845   -1.3427    3.5172 C.ar      1 <0>        -0.1028
      8 C8         -4.3403   -1.3545    4.6701 C.ar      1 <0>        -0.1344
      9 C9         -3.7162   -1.2165    5.9016 C.ar      1 <0>         0.1038
     10 C10        -2.3420   -1.0640    5.9609 C.ar      1 <0>        -0.1390
     11 C11        -1.5823   -1.0471    4.7987 C.ar      1 <0>        -0.0946
     12 C12        -0.0954   -0.8530    4.9394 C.3       1 <0>         0.1453
     13 C13         0.6352   -1.2294    3.6510 C.3       1 <0>        -0.0667
     14 H1          1.6707   -0.8934    3.7041 H         1 <0>         0.1098
     15 C14        -0.0707   -0.5417    2.4823 C.3       1 <0>        -0.0476
     16 C15         0.7380   -0.5684    1.2330 C.3       1 <0>        -0.0757
     17 C16         1.0949   -2.0047    0.8076 C.3       1 <0>        -0.1212
     18 C17         1.5046   -1.8501   -0.6752 C.3       1 <0>        -0.1577
     19 C18         0.8336   -0.5607   -1.1843 C.3       1 <0>         0.1042
     20 H2          0.1795   -0.7866   -2.0265 H         1 <0>         0.0571
     21 O1          1.8278    0.3885   -1.5749 O.3       1 <0>        -0.5609
     22 S1          0.5867   -3.0284    3.4234 S.3       1 <0>        -0.0564
     23 C19         1.5268   -3.6546    4.7757 C.ar      1 <0>        -0.0834
     24 C20         2.0866   -2.7797    5.6990 C.ar      1 <0>        -0.1388
     25 C21         2.8224   -3.2736    6.7579 C.ar      1 <0>        -0.0681
     26 C22         3.0026   -4.6382    6.9003 C.ar      1 <0>        -0.0987
     27 C23         2.4465   -5.5120    5.9827 C.ar      1 <0>        -0.0695
     28 C24         1.7052   -5.0247    4.9245 C.ar      1 <0>        -0.0959
     29 Br1         4.0115   -5.3103    8.3516 Br        1 <0>        -0.0467
     30 O2          0.1712    0.5170    5.2461 O.3       1 <0>        -0.5513
     31 O3         -4.4511   -1.2315    7.0447 O.3       1 <0>        -0.4988
     32 H3          1.0039    1.9031    0.0027 H         1 <0>         0.0668
     33 H4         -0.5459    1.8868   -0.8726 H         1 <0>         0.0541
     34 H5         -0.5289    1.8773    0.9072 H         1 <0>         0.0527
     35 H6         -1.9448   -0.0657   -0.9055 H         1 <0>         0.0678
     36 H7         -1.3402   -1.6428   -0.3595 H         1 <0>         0.0662
     37 H8         -2.2404    0.6272    1.4672 H         1 <0>         0.0714
     38 H9         -3.1866   -0.8346    1.0828 H         1 <0>         0.0725
     39 H10        -1.2939   -2.2304    1.9667 H         1 <0>         0.0948
     40 H11        -4.0697   -1.4505    2.5584 H         1 <0>         0.1311
     41 H12        -5.4127   -1.4701    4.6149 H         1 <0>         0.1308
     42 H13        -1.8562   -0.9571    6.9195 H         1 <0>         0.1247
     43 H14         0.2710   -1.4782    5.7537 H         1 <0>         0.0758
     44 H15        -0.2274    0.5050    2.7431 H         1 <0>         0.0967
     45 H16         1.6619   -0.0120    1.3909 H         1 <0>         0.0797
     46 H17         1.9285   -2.3841    1.3986 H         1 <0>         0.0799
     47 H18         0.2281   -2.6591    0.9002 H         1 <0>         0.0727
     48 H19         2.5881   -1.7643   -0.7563 H         1 <0>         0.0731
     49 H20         1.1532   -2.7063   -1.2509 H         1 <0>         0.0672
     50 H21         2.3806    0.0978   -2.3131 H         1 <0>         0.3755
     51 H22         1.9466   -1.7146    5.5882 H         1 <0>         0.1369
     52 H23         3.2580   -2.5942    7.4755 H         1 <0>         0.1357
     53 H24         2.5890   -6.5765    6.0965 H         1 <0>         0.1383
     54 H25         1.2677   -5.7074    4.2112 H         1 <0>         0.1368
     55 H26        -0.2385    0.8233    6.0666 H         1 <0>         0.3841
     56 H27        -4.5684   -2.1127    7.4253 H         1 <0>         0.3915
@<TRIPOS>BOND
     1    1    2 1
     2    1   32 1
     3    1   33 1
     4    1   34 1
     5    2   16 1
     6    2   19 1
     7    2    3 1
     8    3    4 1
     9    3   35 1
    10    3   36 1
    11    4    5 1
    12    4   37 1
    13    4   38 1
    14    5   15 1
    15    5    6 1
    16    5   39 1
    17    6   11 ar
    18    6    7 ar
    19    7    8 ar
    20    7   40 1
    21    8    9 ar
    22    8   41 1
    23    9   10 ar
    24    9   31 1
    25   10   11 ar
    26   10   42 1
    27   11   12 1
    28   12   13 1
    29   12   30 1
    30   12   43 1
    31   13   14 1
    32   13   15 1
    33   13   22 1
    34   15   16 1
    35   15   44 1
    36   16   17 1
    37   16   45 1
    38   17   18 1
    39   17   46 1
    40   17   47 1
    41   18   19 1
    42   18   48 1
    43   18   49 1
    44   19   20 1
    45   19   21 1
    46   21   50 1
    47   22   23 1
    48   23   28 ar
    49   23   24 ar
    50   24   25 ar
    51   24   51 1
    52   25   26 ar
    53   25   52 1
    54   26   27 ar
    55   26   29 1
    56   27   28 ar
    57   27   53 1
    58   28   54 1
    59   30   55 1
    60   31   56 1
@<TRIPOS>MOLECULE
CHEMBL35151__8
   56    60     0     0     0
SMALL
USER_CHARGES

@<TRIPOS>ATOM
      1 C1         -0.5588    1.9476    0.7419 C.3       1 <0>        -0.1326
      2 C2         -0.3608    0.4866    0.3321 C.3       1 <0>        -0.0473
      3 C3         -1.6724   -0.2492    0.2529 C.3       1 <0>        -0.1024
      4 C4         -2.0333   -0.8959    1.5976 C.3       1 <0>        -0.1060
      5 C5         -1.2933   -0.2204    2.7417 C.3       1 <0>        -0.0426
      6 C6         -1.7720   -0.6741    4.0923 C.ar      1 <0>        -0.0633
      7 C7         -3.1061   -1.0083    4.2604 C.ar      1 <0>        -0.1019
      8 C8         -3.5797   -1.4154    5.4904 C.ar      1 <0>        -0.1345
      9 C9         -2.7104   -1.4889    6.5689 C.ar      1 <0>         0.1048
     10 C10        -1.3784   -1.1547    6.4005 C.ar      1 <0>        -0.1387
     11 C11        -0.9017   -0.7427    5.1603 C.ar      1 <0>        -0.0967
     12 C12         0.5543   -0.3874    5.0639 C.3       1 <0>         0.1470
     13 C13         0.9303    0.2652    3.7286 C.3       1 <0>        -0.0623
     14 H1          0.6400    1.3137    3.7393 H         1 <0>         0.1056
     15 C14         0.2109   -0.4775    2.6148 C.3       1 <0>        -0.0425
     16 C15         0.6680   -0.2485    1.2168 C.3       1 <0>        -0.0768
     17 C16         1.9476    0.5417    0.9452 C.3       1 <0>        -0.1058
     18 C17         1.8382    0.9454   -0.5511 C.3       1 <0>        -0.1590
     19 C18         0.4234    0.5005   -1.0096 C.3       1 <0>         0.0997
     20 H2          0.4414   -0.4954   -1.4382 H         1 <0>         0.0623
     21 O1         -0.1524    1.4507   -1.9016 O.3       1 <0>        -0.5559
     22 S1          2.7310    0.1293    3.5324 S.3       1 <0>        -0.0390
     23 C19         3.3760    1.2479    4.7313 C.ar      1 <0>        -0.0755
     24 C20         2.5167    2.0712    5.4488 C.ar      1 <0>        -0.1385
     25 C21         3.0253    2.9464    6.3880 C.ar      1 <0>        -0.0673
     26 C22         4.3891    3.0042    6.6150 C.ar      1 <0>        -0.1021
     27 C23         5.2474    2.1857    5.9021 C.ar      1 <0>        -0.0679
     28 C24         4.7446    1.3046    4.9653 C.ar      1 <0>        -0.0985
     29 Br1         5.0814    4.2046    7.9017 Br        1 <0>        -0.0489
     30 O2          1.3350   -1.5755    5.2266 O.3       1 <0>        -0.5364
     31 O3         -3.1651   -1.8841    7.7871 O.3       1 <0>        -0.4982
     32 H3          0.3523    2.5094    0.5357 H         1 <0>         0.0604
     33 H4         -1.3855    2.3752    0.1747 H         1 <0>         0.0614
     34 H5         -0.7840    1.9989    1.8071 H         1 <0>         0.0506
     35 H6         -2.4686    0.4429   -0.0491 H         1 <0>         0.0693
     36 H7         -1.6052   -1.0308   -0.5184 H         1 <0>         0.0634
     37 H8         -3.1129   -0.8118    1.7587 H         1 <0>         0.0704
     38 H9         -1.7727   -1.9594    1.5772 H         1 <0>         0.0659
     39 H10        -1.4833    0.8483    2.7122 H         1 <0>         0.0922
     40 H11        -3.7910   -0.9462    3.4284 H         1 <0>         0.1322
     41 H12        -4.6218   -1.6701    5.6128 H         1 <0>         0.1320
     42 H13        -0.6997   -1.2157    7.2382 H         1 <0>         0.1263
     43 H14         0.8056    0.3061    5.8694 H         1 <0>         0.0688
     44 H15         0.3538   -1.5642    2.8239 H         1 <0>         0.0847
     45 H16         0.8295   -1.2544    0.7613 H         1 <0>         0.0707
     46 H17         2.0042    1.4265    1.5696 H         1 <0>         0.0787
     47 H18         2.8202   -0.0962    1.0846 H         1 <0>         0.0745
     48 H19         1.9543    2.0218   -0.6585 H         1 <0>         0.0757
     49 H20         2.6008    0.4252   -1.1295 H         1 <0>         0.0639
     50 H21         0.2933    1.5066   -2.7580 H         1 <0>         0.3759
     51 H22         1.4522    2.0268    5.2719 H         1 <0>         0.1280
     52 H23         2.3580    3.5867    6.9458 H         1 <0>         0.1341
     53 H24         6.3114    2.2332    6.0816 H         1 <0>         0.1373
     54 H25         5.4147    0.6629    4.4125 H         1 <0>         0.1362
     55 H26         1.2010   -2.0213    6.0742 H         1 <0>         0.3759
     56 H27        -3.1142   -2.8383    7.9353 H         1 <0>         0.3921
@<TRIPOS>BOND
     1    1    2 1
     2    1   32 1
     3    1   33 1
     4    1   34 1
     5    2   16 1
     6    2   19 1
     7    2    3 1
     8    3    4 1
     9    3   35 1
    10    3   36 1
    11    4    5 1
    12    4   37 1
    13    4   38 1
    14    5   15 1
    15    5    6 1
    16    5   39 1
    17    6   11 ar
    18    6    7 ar
    19    7    8 ar
    20    7   40 1
    21    8    9 ar
    22    8   41 1
    23    9   10 ar
    24    9   31 1
    25   10   11 ar
    26   10   42 1
    27   11   12 1
    28   12   13 1
    29   12   30 1
    30   12   43 1
    31   13   14 1
    32   13   15 1
    33   13   22 1
    34   15   16 1
    35   15   44 1
    36   16   17 1
    37   16   45 1
    38   17   18 1
    39   17   46 1
    40   17   47 1
    41   18   19 1
    42   18   48 1
    43   18   49 1
    44   19   20 1
    45   19   21 1
    46   21   50 1
    47   22   23 1
    48   23   28 ar
    49   23   24 ar
    50   24   25 ar
    51   24   51 1
    52   25   26 ar
    53   25   52 1
    54   26   27 ar
    55   26   29 1
    56   27   28 ar
    57   27   53 1
    58   28   54 1
    59   30   55 1
    60   31   56 1
@<TRIPOS>MOLECULE
CHEMBL35151__9
   56    60     0     0     0
SMALL
USER_CHARGES

@<TRIPOS>ATOM
      1 C1         -0.4730    1.0842    0.0293 C.3       1 <0>        -0.1331
      2 C2         -0.1628   -0.4118   -0.0533 C.3       1 <0>        -0.0439
      3 C3         -1.4483   -1.1737   -0.2643 C.3       1 <0>        -0.1073
      4 C4         -1.2366   -2.6868   -0.1794 C.3       1 <0>        -0.1107
      5 C5         -0.6437   -3.0000    1.1967 C.3       1 <0>        -0.0416
      6 C6         -0.5370   -4.4843    1.4063 C.ar      1 <0>        -0.0611
      7 C7         -1.5766   -5.2862    0.9536 C.ar      1 <0>        -0.1023
      8 C8         -1.5366   -6.6532    1.1287 C.ar      1 <0>        -0.1346
      9 C9         -0.4482   -7.2327    1.7653 C.ar      1 <0>         0.1048
     10 C10         0.5899   -6.4339    2.2124 C.ar      1 <0>        -0.1383
     11 C11         0.5515   -5.0580    2.0287 C.ar      1 <0>        -0.0993
     12 C12         1.7296   -4.2548    2.5142 C.3       1 <0>         0.1525
     13 C13         1.3835   -2.7695    2.6050 C.3       1 <0>        -0.0748
     14 H1          0.6897   -2.6039    3.4292 H         1 <0>         0.1082
     15 C14         0.7300   -2.3454    1.2883 C.3       1 <0>        -0.0550
     16 C15         0.6118   -0.8369    1.2087 C.3       1 <0>        -0.0781
     17 C16         2.0391   -0.2888    0.9439 C.3       1 <0>        -0.1035
     18 C17         2.1923   -0.1999   -0.5858 C.3       1 <0>        -0.1576
     19 C18         0.8449   -0.6555   -1.1919 C.3       1 <0>         0.1065
     20 H2          0.8800   -1.7131   -1.4534 H         1 <0>         0.0628
     21 O1          0.5140    0.1360   -2.3347 O.3       1 <0>        -0.5584
     22 S1          2.8957   -1.8051    2.8762 S.3       1 <0>        -0.0250
     23 C19         3.3730   -2.2145    4.5221 C.ar      1 <0>        -0.1103
     24 C20         2.5426   -2.9995    5.3130 C.ar      1 <0>        -0.1361
     25 C21         2.9197   -3.3190    6.6024 C.ar      1 <0>        -0.0710
     26 C22         4.1229   -2.8584    7.1071 C.ar      1 <0>        -0.1027
     27 C23         4.9520   -2.0766    6.3222 C.ar      1 <0>        -0.0715
     28 C24         4.5831   -1.7580    5.0302 C.ar      1 <0>        -0.0986
     29 Br1         4.6351   -3.2978    8.8736 Br        1 <0>        -0.0516
     30 O2          2.8203   -4.4274    1.6073 O.3       1 <0>        -0.5390
     31 O3         -0.4021   -8.5784    1.9494 O.3       1 <0>        -0.4981
     32 H3          0.4592    1.6455    0.0936 H         1 <0>         0.0573
     33 H4         -1.0213    1.3913   -0.8613 H         1 <0>         0.0638
     34 H5         -1.0777    1.2815    0.9143 H         1 <0>         0.0514
     35 H6         -2.1679   -0.8730    0.4972 H         1 <0>         0.0666
     36 H7         -1.8500   -0.9264   -1.2469 H         1 <0>         0.0727
     37 H8         -2.1911   -3.2001   -0.2956 H         1 <0>         0.0736
     38 H9         -0.5468   -3.0073   -0.9601 H         1 <0>         0.0683
     39 H10        -1.2912   -2.5858    1.9696 H         1 <0>         0.0889
     40 H11        -2.4242   -4.8348    0.4594 H         1 <0>         0.1322
     41 H12        -2.3485   -7.2699    0.7724 H         1 <0>         0.1315
     42 H13         1.4371   -6.8844    2.7080 H         1 <0>         0.1269
     43 H14         2.0252   -4.6139    3.5000 H         1 <0>         0.0701
     44 H15         1.3462   -2.6834    0.4552 H         1 <0>         0.0939
     45 H16         0.1686   -0.4278    2.1166 H         1 <0>         0.0926
     46 H17         2.1488    0.7000    1.3891 H         1 <0>         0.0775
     47 H18         2.7839   -0.9699    1.3556 H         1 <0>         0.0823
     48 H19         2.4058    0.8276   -0.8806 H         1 <0>         0.0773
     49 H20         2.9938   -0.8588   -0.9198 H         1 <0>         0.0671
     50 H21         1.1175    0.0204   -3.0813 H         1 <0>         0.3771
     51 H22         1.6032   -3.3590    4.9197 H         1 <0>         0.1264
     52 H23         2.2746   -3.9287    7.2176 H         1 <0>         0.1320
     53 H24         5.8905   -1.7186    6.7190 H         1 <0>         0.1350
     54 H25         5.2327   -1.1515    4.4165 H         1 <0>         0.1332
     55 H26         3.1145   -5.3440    1.5158 H         1 <0>         0.3790
     56 H27         0.0175   -9.0605    1.2238 H         1 <0>         0.3921
@<TRIPOS>BOND
     1    1    2 1
     2    1   32 1
     3    1   33 1
     4    1   34 1
     5    2   16 1
     6    2   19 1
     7    2    3 1
     8    3    4 1
     9    3   35 1
    10    3   36 1
    11    4    5 1
    12    4   37 1
    13    4   38 1
    14    5   15 1
    15    5    6 1
    16    5   39 1
    17    6   11 ar
    18    6    7 ar
    19    7    8 ar
    20    7   40 1
    21    8    9 ar
    22    8   41 1
    23    9   10 ar
    24    9   31 1
    25   10   11 ar
    26   10   42 1
    27   11   12 1
    28   12   13 1
    29   12   30 1
    30   12   43 1
    31   13   14 1
    32   13   15 1
    33   13   22 1
    34   15   16 1
    35   15   44 1
    36   16   17 1
    37   16   45 1
    38   17   18 1
    39   17   46 1
    40   17   47 1
    41   18   19 1
    42   18   48 1
    43   18   49 1
    44   19   20 1
    45   19   21 1
    46   21   50 1
    47   22   23 1
    48   23   28 ar
    49   23   24 ar
    50   24   25 ar
    51   24   51 1
    52   25   26 ar
    53   25   52 1
    54   26   27 ar
    55   26   29 1
    56   27   28 ar
    57   27   53 1
    58   28   54 1
    59   30   55 1
    60   31   56 1
@<TRIPOS>MOLECULE
CHEMBL35151__10
   56    60     0     0     0
SMALL
USER_CHARGES

@<TRIPOS>ATOM
      1 C1          0.3049    0.9440   -0.3117 C.3       1 <0>        -0.1315
      2 C2          0.3105   -0.5697   -0.0887 C.3       1 <0>        -0.0622
      3 C3         -1.1141   -1.0892   -0.0551 C.3       1 <0>        -0.1006
      4 C4         -1.8687   -0.2717    1.0060 C.3       1 <0>        -0.1142
      5 C5         -1.1968   -0.3619    2.3698 C.3       1 <0>        -0.0434
      6 C6         -1.3895   -1.7331    2.9566 C.ar      1 <0>        -0.0533
      7 C7         -2.6126   -2.3597    2.7485 C.ar      1 <0>        -0.1056
      8 C8         -2.8562   -3.6145    3.2634 C.ar      1 <0>        -0.1337
      9 C9         -1.8715   -4.2600    3.9978 C.ar      1 <0>         0.1030
     10 C10        -0.6526   -3.6370    4.2039 C.ar      1 <0>        -0.1360
     11 C11        -0.4094   -2.3741    3.6820 C.ar      1 <0>        -0.0990
     12 C12         0.9426   -1.7593    3.9340 C.3       1 <0>         0.1725
     13 C13         0.8990   -0.2513    3.6968 C.3       1 <0>        -0.0748
     14 H1          0.2843    0.2223    4.4622 H         1 <0>         0.1052
     15 C14         0.2885    0.0052    2.3141 C.3       1 <0>        -0.0675
     16 C15         0.9505   -0.8963    1.2875 C.3       1 <0>        -0.0704
     17 C16         2.4321   -0.6129    1.0151 C.3       1 <0>        -0.0966
     18 C17         2.6472   -1.2159   -0.3999 C.3       1 <0>        -0.1575
     19 C18         1.2569   -1.2348   -1.0827 C.3       1 <0>         0.1131
     20 H2          0.9437   -2.2613   -1.2734 H         1 <0>         0.0520
     21 O1          1.2945   -0.4927   -2.3033 O.3       1 <0>        -0.5616
     22 S1          2.5810    0.4249    3.7612 S.3       1 <0>        -0.0519
     23 C19         2.3394    2.1702    3.7543 C.ar      1 <0>        -0.0766
     24 C20         1.0559    2.6958    3.8412 C.ar      1 <0>        -0.1333
     25 C21         0.8699    4.0641    3.8359 C.ar      1 <0>        -0.0682
     26 C22         1.9599    4.9116    3.7443 C.ar      1 <0>        -0.0993
     27 C23         3.2392    4.3914    3.6576 C.ar      1 <0>        -0.0690
     28 C24         3.4323    3.0242    3.6677 C.ar      1 <0>        -0.0966
     29 Br1         1.7005    6.7847    3.7369 Br        1 <0>        -0.0482
     30 O2          1.8999   -2.3478    3.0512 O.3       1 <0>        -0.5335
     31 O3         -2.1027   -5.4964    4.5122 O.3       1 <0>        -0.4982
     32 H3          1.3286    1.3178   -0.2925 H         1 <0>         0.0550
     33 H4         -0.1453    1.1671   -1.2790 H         1 <0>         0.0577
     34 H5         -0.2725    1.4254    0.4776 H         1 <0>         0.0530
     35 H6         -1.5819   -0.9539   -1.0303 H         1 <0>         0.0650
     36 H7         -1.1183   -2.1447    0.2168 H         1 <0>         0.0623
     37 H8         -1.9009    0.7722    0.6939 H         1 <0>         0.0735
     38 H9         -2.8882   -0.6487    1.0865 H         1 <0>         0.0689
     39 H10        -1.6922    0.3456    3.0348 H         1 <0>         0.0781
     40 H11        -3.3799   -1.8579    2.1777 H         1 <0>         0.1318
     41 H12        -3.8097   -4.0934    3.0964 H         1 <0>         0.1303
     42 H13         0.1150   -4.1374    4.7756 H         1 <0>         0.1282
     43 H14         1.2389   -1.9526    4.9650 H         1 <0>         0.0754
     44 H15         0.4059    1.0539    2.0410 H         1 <0>         0.0940
     45 H16         0.7928   -1.9443    1.5424 H         1 <0>         0.1043
     46 H17         2.6251    0.4599    1.0105 H         1 <0>         0.0618
     47 H18         3.0622   -1.1161    1.7485 H         1 <0>         0.0879
     48 H19         3.3360   -0.5935   -0.9711 H         1 <0>         0.0667
     49 H20         3.0381   -2.2302   -0.3189 H         1 <0>         0.0629
     50 H21         1.8806   -0.8686   -2.9742 H         1 <0>         0.3736
     51 H22         0.2048    2.0348    3.9124 H         1 <0>         0.1300
     52 H23        -0.1274    4.4731    3.9031 H         1 <0>         0.1346
     53 H24         4.0879    5.0555    3.5862 H         1 <0>         0.1376
     54 H25         4.4313    2.6188    3.6045 H         1 <0>         0.1366
     55 H26         1.9953   -3.3044    3.1556 H         1 <0>         0.3756
     56 H27        -1.8574   -6.2208    3.9204 H         1 <0>         0.3917
@<TRIPOS>BOND
     1    1    2 1
     2    1   32 1
     3    1   33 1
     4    1   34 1
     5    2   16 1
     6    2   19 1
     7    2    3 1
     8    3    4 1
     9    3   35 1
    10    3   36 1
    11    4    5 1
    12    4   37 1
    13    4   38 1
    14    5   15 1
    15    5    6 1
    16    5   39 1
    17    6   11 ar
    18    6    7 ar
    19    7    8 ar
    20    7   40 1
    21    8    9 ar
    22    8   41 1
    23    9   10 ar
    24    9   31 1
    25   10   11 ar
    26   10   42 1
    27   11   12 1
    28   12   13 1
    29   12   30 1
    30   12   43 1
    31   13   14 1
    32   13   15 1
    33   13   22 1
    34   15   16 1
    35   15   44 1
    36   16   17 1
    37   16   45 1
    38   17   18 1
    39   17   46 1
    40   17   47 1
    41   18   19 1
    42   18   48 1
    43   18   49 1
    44   19   20 1
    45   19   21 1
    46   21   50 1
    47   22   23 1
    48   23   28 ar
    49   23   24 ar
    50   24   25 ar
    51   24   51 1
    52   25   26 ar
    53   25   52 1
    54   26   27 ar
    55   26   29 1
    56   27   28 ar
    57   27   53 1
    58   28   54 1
    59   30   55 1
    60   31   56 1
@<TRIPOS>MOLECULE
CHEMBL35151__11
   56    60     0     0     0
SMALL
USER_CHARGES

@<TRIPOS>ATOM
      1 C1         -0.2022    1.2690   -0.0048 C.3       1 <0>        -0.1270
      2 C2          0.1010   -0.2293   -0.0842 C.3       1 <0>        -0.0425
      3 C3         -1.1632   -1.0649   -0.2940 C.3       1 <0>        -0.1094
      4 C4         -2.0382   -1.0602    0.9522 C.3       1 <0>        -0.1094
      5 C5         -1.2771   -1.6412    2.1359 C.3       1 <0>        -0.0388
      6 C6         -1.0051   -3.1071    1.9720 C.ar      1 <0>        -0.0561
      7 C7         -1.8299   -3.8709    1.1633 C.ar      1 <0>        -0.1016
      8 C8         -1.6047   -5.2241    1.0087 C.ar      1 <0>        -0.1385
      9 C9         -0.5452   -5.8227    1.6743 C.ar      1 <0>         0.1060
     10 C10         0.2790   -5.0578    2.4806 C.ar      1 <0>        -0.1408
     11 C11         0.0586   -3.6934    2.6287 C.ar      1 <0>        -0.0831
     12 C12         0.9880   -2.9295    3.5211 C.3       1 <0>         0.1529
     13 C13         0.7519   -1.4345    3.5805 C.3       1 <0>        -0.0645
     14 H1          0.1458   -1.2213    4.4842 H         1 <0>         0.1020
     15 C14         0.0107   -0.8720    2.3745 C.3       1 <0>        -0.0455
     16 C15         0.8751   -0.7253    1.1527 C.3       1 <0>        -0.0650
     17 C16         1.5507   -2.0160    0.6722 C.3       1 <0>        -0.1200
     18 C17         1.9569   -1.7072   -0.7894 C.3       1 <0>        -0.1599
     19 C18         1.0539   -0.5572   -1.2641 C.3       1 <0>         0.1046
     20 H2          0.4753   -0.8687   -2.1352 H         1 <0>         0.0536
     21 O1          1.8441    0.5886   -1.5896 O.3       1 <0>        -0.5613
     22 S1          2.3431   -0.5750    3.7821 S.3       1 <0>        -0.0390
     23 C19         2.8430   -0.9828    5.4218 C.ar      1 <0>        -0.0655
     24 C20         1.9862   -1.6919    6.2549 C.ar      1 <0>        -0.1360
     25 C21         2.3812   -2.0103    7.5392 C.ar      1 <0>        -0.0684
     26 C22         3.6287   -1.6240    7.9968 C.ar      1 <0>        -0.1021
     27 C23         4.4842   -0.9179    7.1696 C.ar      1 <0>        -0.0682
     28 C24         4.0972   -0.6009    5.8826 C.ar      1 <0>        -0.0980
     29 Br1         4.1652   -2.0617    9.7565 Br        1 <0>        -0.0497
     30 O2          2.3458   -3.2067    3.1724 O.3       1 <0>        -0.5305
     31 O3         -0.3168   -7.1552    1.5344 O.3       1 <0>        -0.4988
     32 H3          0.7326    1.8260    0.0588 H         1 <0>         0.0670
     33 H4         -0.7486    1.5769   -0.8963 H         1 <0>         0.0538
     34 H5         -0.8064    1.4711    0.8796 H         1 <0>         0.0516
     35 H6         -1.7301   -0.6494   -1.1312 H         1 <0>         0.0637
     36 H7         -0.8826   -2.0906   -0.5381 H         1 <0>         0.0676
     37 H8         -2.3433   -0.0365    1.1855 H         1 <0>         0.0723
     38 H9         -2.9411   -1.6462    0.7687 H         1 <0>         0.0719
     39 H10        -1.9076   -1.5190    3.0284 H         1 <0>         0.0831
     40 H11        -2.6609   -3.4171    0.6448 H         1 <0>         0.1316
     41 H12        -2.2497   -5.8111    0.3728 H         1 <0>         0.1301
     42 H13         1.1025   -5.5248    3.0006 H         1 <0>         0.1247
     43 H14         0.8447   -3.3251    4.5483 H         1 <0>         0.0585
     44 H15        -0.3023    0.1628    2.6556 H         1 <0>         0.0817
     45 H16         1.6582    0.0139    1.3680 H         1 <0>         0.0773
     46 H17         2.4512   -2.2204    1.2565 H         1 <0>         0.0903
     47 H18         0.8703   -2.8628    0.6998 H         1 <0>         0.0730
     48 H19         3.0035   -1.4051   -0.8279 H         1 <0>         0.0707
     49 H20         1.8007   -2.5891   -1.4114 H         1 <0>         0.0612
     50 H21         2.4607    0.4463   -2.3209 H         1 <0>         0.3745
     51 H22         1.0123   -1.9933    5.8985 H         1 <0>         0.1271
     52 H23         1.7156   -2.5610    8.1873 H         1 <0>         0.1333
     53 H24         5.4572   -0.6178    7.5297 H         1 <0>         0.1370
     54 H25         4.7672   -0.0537    5.2359 H         1 <0>         0.1359
     55 H26         2.5892   -4.1394    3.2496 H         1 <0>         0.3713
     56 H27         0.2752   -7.3781    0.8030 H         1 <0>         0.3916
@<TRIPOS>BOND
     1    1    2 1
     2    1   32 1
     3    1   33 1
     4    1   34 1
     5    2   16 1
     6    2   19 1
     7    2    3 1
     8    3    4 1
     9    3   35 1
    10    3   36 1
    11    4    5 1
    12    4   37 1
    13    4   38 1
    14    5   15 1
    15    5    6 1
    16    5   39 1
    17    6   11 ar
    18    6    7 ar
    19    7    8 ar
    20    7   40 1
    21    8    9 ar
    22    8   41 1
    23    9   10 ar
    24    9   31 1
    25   10   11 ar
    26   10   42 1
    27   11   12 1
    28   12   13 1
    29   12   30 1
    30   12   43 1
    31   13   14 1
    32   13   15 1
    33   13   22 1
    34   15   16 1
    35   15   44 1
    36   16   17 1
    37   16   45 1
    38   17   18 1
    39   17   46 1
    40   17   47 1
    41   18   19 1
    42   18   48 1
    43   18   49 1
    44   19   20 1
    45   19   21 1
    46   21   50 1
    47   22   23 1
    48   23   28 ar
    49   23   24 ar
    50   24   25 ar
    51   24   51 1
    52   25   26 ar
    53   25   52 1
    54   26   27 ar
    55   26   29 1
    56   27   28 ar
    57   27   53 1
    58   28   54 1
    59   30   55 1
    60   31   56 1
@<TRIPOS>MOLECULE
CHEMBL35151__12
   56    60     0     0     0
SMALL
USER_CHARGES

@<TRIPOS>ATOM
      1 C1          0.9978    1.4232   -0.6174 C.3       1 <0>        -0.1318
      2 C2          1.1405   -0.1003   -0.6306 C.3       1 <0>        -0.0485
      3 C3         -0.1448   -0.7523   -1.0711 C.3       1 <0>        -0.1035
      4 C4         -0.9940   -1.1627    0.1426 C.3       1 <0>        -0.1061
      5 C5         -0.7140   -0.2240    1.3035 C.3       1 <0>        -0.0474
      6 C6         -1.7063   -0.3290    2.4238 C.ar      1 <0>        -0.0641
      7 C7         -3.0179   -0.6680    2.1441 C.ar      1 <0>        -0.1001
      8 C8         -3.9499   -0.7642    3.1580 C.ar      1 <0>        -0.1343
      9 C9         -3.5658   -0.5100    4.4658 C.ar      1 <0>         0.1069
     10 C10        -2.2566   -0.1596    4.7416 C.ar      1 <0>        -0.1380
     11 C11        -1.3158   -0.0673    3.7227 C.ar      1 <0>        -0.1029
     12 C12         0.0830    0.3217    4.1031 C.3       1 <0>         0.1370
     13 C13         0.9960    0.5771    2.8973 C.3       1 <0>        -0.0557
     14 H1          0.8079    1.5752    2.5048 H         1 <0>         0.1327
     15 C14         0.6997   -0.4747    1.8438 C.3       1 <0>        -0.0744
     16 C15         1.6584   -0.6465    0.7146 C.3       1 <0>        -0.0679
     17 C16         3.0420    0.0068    0.7975 C.3       1 <0>        -0.1017
     18 C17         3.5721   -0.0872   -0.6611 C.3       1 <0>        -0.1628
     19 C18         2.3453   -0.4145   -1.5473 C.3       1 <0>         0.1026
     20 H2          2.3321   -1.4622   -1.8239 H         1 <0>         0.0585
     21 O1          2.3080    0.4299   -2.6939 O.3       1 <0>        -0.5565
     22 S1          2.7163    0.4574    3.4682 S.3       1 <0>        -0.0661
     23 C19         2.8950   -1.2331    3.9316 C.ar      1 <0>        -0.0701
     24 C20         1.7739   -2.0466    4.0436 C.ar      1 <0>        -0.1532
     25 C21         1.9174   -3.3711    4.4065 C.ar      1 <0>        -0.0682
     26 C22         3.1757   -3.8886    4.6586 C.ar      1 <0>        -0.0981
     27 C23         4.2940   -3.0812    4.5480 C.ar      1 <0>        -0.0681
     28 C24         4.1578   -1.7572    4.1803 C.ar      1 <0>        -0.0960
     29 Br1         3.3675   -5.7030    5.1560 Br        1 <0>        -0.0471
     30 O2          0.0417    1.5076    4.9009 O.3       1 <0>        -0.5456
     31 O3         -4.4731   -0.6064    5.4724 O.3       1 <0>        -0.4976
     32 H3          1.9851    1.8800   -0.5479 H         1 <0>         0.0600
     33 H4          0.5100    1.7504   -1.5356 H         1 <0>         0.0614
     34 H5          0.3969    1.7245    0.2406 H         1 <0>         0.0495
     35 H6         -0.7154   -0.0554   -1.6986 H         1 <0>         0.0695
     36 H7          0.0808   -1.6398   -1.6760 H         1 <0>         0.0644
     37 H8         -2.0528   -1.1125   -0.1260 H         1 <0>         0.0713
     38 H9         -0.7570   -2.1885    0.4325 H         1 <0>         0.0662
     39 H10        -0.7805    0.8035    0.9502 H         1 <0>         0.0940
     40 H11        -3.3284   -0.8520    1.1266 H         1 <0>         0.1331
     41 H12        -4.9705   -1.0329    2.9315 H         1 <0>         0.1327
     42 H13        -1.9631    0.0455    5.7611 H         1 <0>         0.1264
     43 H14         0.5240   -0.4823    4.6998 H         1 <0>         0.0829
     44 H15         0.6540   -1.4505    2.3797 H         1 <0>         0.0853
     45 H16         1.8318   -1.7424    0.5894 H         1 <0>         0.0718
     46 H17         2.9824    1.0432    1.1168 H         1 <0>         0.0785
     47 H18         3.6958   -0.5650    1.4613 H         1 <0>         0.0720
     48 H19         4.0089    0.8648   -0.9605 H         1 <0>         0.0741
     49 H20         4.3149   -0.8797   -0.7370 H         1 <0>         0.0643
     50 H21         3.0369    0.2853   -3.3126 H         1 <0>         0.3753
     51 H22         0.7915   -1.6432    3.8473 H         1 <0>         0.1507
     52 H23         1.0465   -4.0038    4.4941 H         1 <0>         0.1342
     53 H24         5.2748   -3.4880    4.7454 H         1 <0>         0.1384
     54 H25         5.0314   -1.1286    4.0898 H         1 <0>         0.1379
     55 H26        -0.4632    1.4131    5.7202 H         1 <0>         0.3818
     56 H27        -4.5288   -1.4867    5.8687 H         1 <0>         0.3923
@<TRIPOS>BOND
     1    1    2 1
     2    1   32 1
     3    1   33 1
     4    1   34 1
     5    2   16 1
     6    2   19 1
     7    2    3 1
     8    3    4 1
     9    3   35 1
    10    3   36 1
    11    4    5 1
    12    4   37 1
    13    4   38 1
    14    5   15 1
    15    5    6 1
    16    5   39 1
    17    6   11 ar
    18    6    7 ar
    19    7    8 ar
    20    7   40 1
    21    8    9 ar
    22    8   41 1
    23    9   10 ar
    24    9   31 1
    25   10   11 ar
    26   10   42 1
    27   11   12 1
    28   12   13 1
    29   12   30 1
    30   12   43 1
    31   13   14 1
    32   13   15 1
    33   13   22 1
    34   15   16 1
    35   15   44 1
    36   16   17 1
    37   16   45 1
    38   17   18 1
    39   17   46 1
    40   17   47 1
    41   18   19 1
    42   18   48 1
    43   18   49 1
    44   19   20 1
    45   19   21 1
    46   21   50 1
    47   22   23 1
    48   23   28 ar
    49   23   24 ar
    50   24   25 ar
    51   24   51 1
    52   25   26 ar
    53   25   52 1
    54   26   27 ar
    55   26   29 1
    56   27   28 ar
    57   27   53 1
    58   28   54 1
    59   30   55 1
    60   31   56 1
@<TRIPOS>MOLECULE
CHEMBL35151__13
   56    60     0     0     0
SMALL
USER_CHARGES

@<TRIPOS>ATOM
      1 C1         -2.3044   -1.5963    2.0298 C.3       1 <0>        -0.1317
      2 C2         -1.3703   -2.8079    2.0559 C.3       1 <0>        -0.0432
      3 C3         -2.0569   -3.9479    2.7677 C.3       1 <0>        -0.1079
      4 C4         -1.1159   -5.1344    2.9871 C.3       1 <0>        -0.1110
      5 C5          0.0837   -4.6369    3.7975 C.3       1 <0>        -0.0430
      6 C6          0.9855   -5.7794    4.1716 C.ar      1 <0>        -0.0673
      7 C7          0.3990   -6.9781    4.5562 C.ar      1 <0>        -0.0998
      8 C8          1.1778   -8.0561    4.9200 C.ar      1 <0>        -0.1370
      9 C9          2.5607   -7.9412    4.9039 C.ar      1 <0>         0.1074
     10 C10         3.1451   -6.7479    4.5162 C.ar      1 <0>        -0.1392
     11 C11         2.3594   -5.6655    4.1430 C.ar      1 <0>        -0.0951
     12 C12         3.0639   -4.4085    3.7044 C.3       1 <0>         0.1515
     13 C13         2.1116   -3.2139    3.7075 C.3       1 <0>        -0.0607
     14 H1          1.8651   -2.9435    4.7342 H         1 <0>         0.1288
     15 C14         0.8376   -3.6109    2.9593 C.3       1 <0>        -0.0702
     16 C15        -0.0282   -2.3968    2.6909 C.3       1 <0>        -0.0681
     17 C16         0.6636   -1.5945    1.5572 C.3       1 <0>        -0.1618
     18 C17         0.0703   -2.1140    0.2344 C.3       1 <0>        -0.1638
     19 C18        -0.9853   -3.1787    0.6118 C.3       1 <0>         0.1049
     20 H2         -0.5523   -4.1783    0.5748 H         1 <0>         0.0573
     21 O1         -2.1211   -3.0888   -0.2506 O.3       1 <0>        -0.5582
     22 S1          2.8957   -1.8051    2.8762 S.3       1 <0>        -0.0791
     23 C19         3.7705   -2.5360    1.5326 C.ar      1 <0>        -0.1036
     24 C20         3.0946   -3.3215    0.6067 C.ar      1 <0>        -0.1028
     25 C21         3.7829   -3.8925   -0.4454 C.ar      1 <0>        -0.0914
     26 C22         5.1443   -3.6833   -0.5783 C.ar      1 <0>        -0.0746
     27 C23         5.8202   -2.9017    0.3420 C.ar      1 <0>        -0.0903
     28 C24         5.1367   -2.3235    1.3933 C.ar      1 <0>        -0.0652
     29 Br1         6.0830   -4.4677   -2.0203 Br        1 <0>        -0.0413
     30 O2          4.1497   -4.1446    4.5952 O.3       1 <0>        -0.5449
     31 O3          3.3375   -8.9953    5.2675 O.3       1 <0>        -0.4975
     32 H3         -1.8494   -0.7995    1.4415 H         1 <0>         0.0576
     33 H4         -3.2562   -1.8810    1.5814 H         1 <0>         0.0622
     34 H5         -2.4729   -1.2455    3.0479 H         1 <0>         0.0503
     35 H6         -2.4166   -3.5969    3.7349 H         1 <0>         0.0664
     36 H7         -2.9087   -4.2763    2.1721 H         1 <0>         0.0715
     37 H8         -1.6338   -5.9193    3.5383 H         1 <0>         0.0736
     38 H9         -0.7773   -5.5197    2.0253 H         1 <0>         0.0664
     39 H10        -0.2726   -4.1620    4.7117 H         1 <0>         0.0910
     40 H11        -0.6772   -7.0669    4.5700 H         1 <0>         0.1327
     41 H12         0.7139   -8.9852    5.2165 H         1 <0>         0.1319
     42 H13         4.2213   -6.6579    4.5036 H         1 <0>         0.1251
     43 H14         3.4555   -4.5510    2.6972 H         1 <0>         0.0718
     44 H15         1.1065   -4.0561    2.0014 H         1 <0>         0.0789
     45 H16        -0.1692   -1.8054    3.5956 H         1 <0>         0.0878
     46 H17         0.4534   -0.5309    1.6694 H         1 <0>         0.0676
     47 H18         1.7394   -1.7682    1.5786 H         1 <0>         0.1153
     48 H19        -0.4022   -1.2961   -0.3095 H         1 <0>         0.0729
     49 H20         0.8539   -2.5646   -0.3747 H         1 <0>         0.0603
     50 H21        -1.9336   -3.3122   -1.1726 H         1 <0>         0.3756
     51 H22         2.0321   -3.4854    0.7100 H         1 <0>         0.1471
     52 H23         3.2582   -4.5033   -1.1651 H         1 <0>         0.1371
     53 H24         6.8828   -2.7403    0.2355 H         1 <0>         0.1402
     54 H25         5.6640   -1.7099    2.1087 H         1 <0>         0.1434
     55 H26         4.8112   -4.8492    4.6285 H         1 <0>         0.3799
     56 H27         3.5758   -9.5796    4.5348 H         1 <0>         0.3918
@<TRIPOS>BOND
     1    1    2 1
     2    1   32 1
     3    1   33 1
     4    1   34 1
     5    2   16 1
     6    2   19 1
     7    2    3 1
     8    3    4 1
     9    3   35 1
    10    3   36 1
    11    4    5 1
    12    4   37 1
    13    4   38 1
    14    5   15 1
    15    5    6 1
    16    5   39 1
    17    6   11 ar
    18    6    7 ar
    19    7    8 ar
    20    7   40 1
    21    8    9 ar
    22    8   41 1
    23    9   10 ar
    24    9   31 1
    25   10   11 ar
    26   10   42 1
    27   11   12 1
    28   12   13 1
    29   12   30 1
    30   12   43 1
    31   13   14 1
    32   13   15 1
    33   13   22 1
    34   15   16 1
    35   15   44 1
    36   16   17 1
    37   16   45 1
    38   17   18 1
    39   17   46 1
    40   17   47 1
    41   18   19 1
    42   18   48 1
    43   18   49 1
    44   19   20 1
    45   19   21 1
    46   21   50 1
    47   22   23 1
    48   23   28 ar
    49   23   24 ar
    50   24   25 ar
    51   24   51 1
    52   25   26 ar
    53   25   52 1
    54   26   27 ar
    55   26   29 1
    56   27   28 ar
    57   27   53 1
    58   28   54 1
    59   30   55 1
    60   31   56 1
@<TRIPOS>MOLECULE
CHEMBL35151__14
   56    60     0     0     0
SMALL
USER_CHARGES

@<TRIPOS>ATOM
      1 C1          0.3049    0.9440   -0.3117 C.3       1 <0>        -0.1333
      2 C2          0.3105   -0.5697   -0.0887 C.3       1 <0>        -0.0534
      3 C3         -1.1141   -1.0892   -0.0551 C.3       1 <0>        -0.1025
      4 C4         -1.8687   -0.2717    1.0060 C.3       1 <0>        -0.1151
      5 C5         -1.1968   -0.3619    2.3698 C.3       1 <0>        -0.0426
      6 C6         -1.3895   -1.7331    2.9566 C.ar      1 <0>        -0.0615
      7 C7         -2.6126   -2.3597    2.7485 C.ar      1 <0>        -0.1023
      8 C8         -2.8562   -3.6145    3.2634 C.ar      1 <0>        -0.1363
      9 C9         -1.8715   -4.2600    3.9978 C.ar      1 <0>         0.1070
     10 C10        -0.6526   -3.6370    4.2039 C.ar      1 <0>        -0.1378
     11 C11        -0.4094   -2.3741    3.6820 C.ar      1 <0>        -0.0939
     12 C12         0.9426   -1.7593    3.9340 C.3       1 <0>         0.1706
     13 C13         0.8990   -0.2513    3.6968 C.3       1 <0>        -0.0681
     14 H1          0.2843    0.2223    4.4622 H         1 <0>         0.1052
     15 C14         0.2885    0.0052    2.3141 C.3       1 <0>        -0.0673
     16 C15         0.9505   -0.8963    1.2875 C.3       1 <0>        -0.0861
     17 C16         2.4321   -0.6129    1.0151 C.3       1 <0>        -0.1059
     18 C17         2.6472   -1.2159   -0.3999 C.3       1 <0>        -0.1595
     19 C18         1.2569   -1.2348   -1.0827 C.3       1 <0>         0.1124
     20 H2          0.9437   -2.2613   -1.2734 H         1 <0>         0.0557
     21 O1          1.2945   -0.4927   -2.3033 O.3       1 <0>        -0.5592
     22 S1          2.5810    0.4249    3.7612 S.3       1 <0>        -0.0677
     23 C19         2.3394    2.1702    3.7543 C.ar      1 <0>        -0.0699
     24 C20         1.0559    2.6958    3.8412 C.ar      1 <0>        -0.1323
     25 C21         0.8699    4.0641    3.8359 C.ar      1 <0>        -0.0676
     26 C22         1.9599    4.9116    3.7443 C.ar      1 <0>        -0.0988
     27 C23         3.2392    4.3914    3.6576 C.ar      1 <0>        -0.0687
     28 C24         3.4323    3.0242    3.6677 C.ar      1 <0>        -0.0969
     29 Br1         1.7005    6.7847    3.7369 Br        1 <0>        -0.0475
     30 O2          1.3310   -2.0128    5.2856 O.3       1 <0>        -0.5487
     31 O3         -2.1027   -5.4964    4.5122 O.3       1 <0>        -0.4974
     32 H3          1.3286    1.3178   -0.2925 H         1 <0>         0.0567
     33 H4         -0.1453    1.1671   -1.2790 H         1 <0>         0.0619
     34 H5         -0.2725    1.4254    0.4776 H         1 <0>         0.0557
     35 H6         -1.5819   -0.9539   -1.0303 H         1 <0>         0.0691
     36 H7         -1.1183   -2.1447    0.2168 H         1 <0>         0.0641
     37 H8         -1.9009    0.7722    0.6939 H         1 <0>         0.0754
     38 H9         -2.8882   -0.6487    1.0865 H         1 <0>         0.0717
     39 H10        -1.6922    0.3456    3.0348 H         1 <0>         0.0819
     40 H11        -3.3799   -1.8579    2.1777 H         1 <0>         0.1328
     41 H12        -3.8097   -4.0934    3.0964 H         1 <0>         0.1312
     42 H13         0.1150   -4.1374    4.7756 H         1 <0>         0.1269
     43 H14         1.6728   -2.2082    3.2606 H         1 <0>         0.0801
     44 H15         0.4059    1.0539    2.0410 H         1 <0>         0.1028
     45 H16         0.7928   -1.9443    1.5424 H         1 <0>         0.0821
     46 H17         2.6251    0.4599    1.0105 H         1 <0>         0.0774
     47 H18         3.0622   -1.1161    1.7485 H         1 <0>         0.0710
     48 H19         3.3360   -0.5935   -0.9711 H         1 <0>         0.0737
     49 H20         3.0381   -2.2302   -0.3189 H         1 <0>         0.0654
     50 H21         1.8806   -0.8686   -2.9742 H         1 <0>         0.3755
     51 H22         0.2048    2.0348    3.9124 H         1 <0>         0.1307
     52 H23        -0.1274    4.4731    3.9031 H         1 <0>         0.1353
     53 H24         4.0879    5.0555    3.5862 H         1 <0>         0.1381
     54 H25         4.4313    2.6188    3.6045 H         1 <0>         0.1369
     55 H26         1.3968   -2.9519    5.5065 H         1 <0>         0.3812
     56 H27        -1.8574   -6.2208    3.9204 H         1 <0>         0.3919
@<TRIPOS>BOND
     1    1    2 1
     2    1   32 1
     3    1   33 1
     4    1   34 1
     5    2   16 1
     6    2   19 1
     7    2    3 1
     8    3    4 1
     9    3   35 1
    10    3   36 1
    11    4    5 1
    12    4   37 1
    13    4   38 1
    14    5   15 1
    15    5    6 1
    16    5   39 1
    17    6   11 ar
    18    6    7 ar
    19    7    8 ar
    20    7   40 1
    21    8    9 ar
    22    8   41 1
    23    9   10 ar
    24    9   31 1
    25   10   11 ar
    26   10   42 1
    27   11   12 1
    28   12   13 1
    29   12   30 1
    30   12   43 1
    31   13   14 1
    32   13   15 1
    33   13   22 1
    34   15   16 1
    35   15   44 1
    36   16   17 1
    37   16   45 1
    38   17   18 1
    39   17   46 1
    40   17   47 1
    41   18   19 1
    42   18   48 1
    43   18   49 1
    44   19   20 1
    45   19   21 1
    46   21   50 1
    47   22   23 1
    48   23   28 ar
    49   23   24 ar
    50   24   25 ar
    51   24   51 1
    52   25   26 ar
    53   25   52 1
    54   26   27 ar
    55   26   29 1
    56   27   28 ar
    57   27   53 1
    58   28   54 1
    59   30   55 1
    60   31   56 1
@<TRIPOS>MOLECULE
CHEMBL35151__15
   56    60     0     0     0
SMALL
USER_CHARGES

@<TRIPOS>ATOM
      1 C1          0.4919    0.7939   -0.5412 C.3       1 <0>        -0.1244
      2 C2          0.4482   -0.7104   -0.2590 C.3       1 <0>        -0.0407
      3 C3         -0.9628   -1.2840   -0.4076 C.3       1 <0>        -0.1094
      4 C4         -1.8727   -0.8017    0.7147 C.3       1 <0>        -0.1098
      5 C5         -1.3288   -1.2435    2.0654 C.3       1 <0>        -0.0399
      6 C6         -1.4178   -2.7282    2.2600 C.ar      1 <0>        -0.0539
      7 C7         -2.4386   -3.4303    1.6361 C.ar      1 <0>        -0.1016
      8 C8         -2.5614   -4.7943    1.8041 C.ar      1 <0>        -0.1369
      9 C9         -1.6578   -5.4704    2.6106 C.ar      1 <0>         0.1073
     10 C10        -0.6373   -4.7715    3.2303 C.ar      1 <0>        -0.1414
     11 C11        -0.5079   -3.3990    3.0503 C.ar      1 <0>        -0.0847
     12 C12         0.6417   -2.7186    3.7380 C.3       1 <0>         0.1696
     13 C13         0.6151   -1.2040    3.6182 C.3       1 <0>        -0.0619
     14 H1         -0.0449   -0.8045    4.4065 H         1 <0>         0.1078
     15 C14         0.0903   -0.7374    2.2628 C.3       1 <0>        -0.0629
     16 C15         1.0244   -1.0517    1.1282 C.3       1 <0>        -0.0692
     17 C16         1.4250   -2.5284    1.0043 C.3       1 <0>        -0.1231
     18 C17         2.0177   -2.6219   -0.4238 C.3       1 <0>        -0.1586
     19 C18         1.3531   -1.5003   -1.2402 C.3       1 <0>         0.1051
     20 H2          0.7481   -1.9295   -2.0411 H         1 <0>         0.0554
     21 O1          2.3480   -0.6371   -1.7953 O.3       1 <0>        -0.5602
     22 S1          2.2856   -0.5422    3.8939 S.3       1 <0>        -0.0814
     23 C19         2.0317    1.1912    4.0823 C.ar      1 <0>        -0.0659
     24 C20         0.7414    1.7027    4.1484 C.ar      1 <0>        -0.1316
     25 C21         0.5457    3.0616    4.2965 C.ar      1 <0>        -0.0680
     26 C22         1.6329    3.9137    4.3791 C.ar      1 <0>        -0.0975
     27 C23         2.9191    3.4074    4.3136 C.ar      1 <0>        -0.0687
     28 C24         3.1215    2.0489    4.1708 C.ar      1 <0>        -0.0952
     29 Br1         1.3604    5.7740    4.5814 Br        1 <0>        -0.0467
     30 O2          0.5971   -3.0632    5.1333 O.3       1 <0>        -0.5571
     31 O3         -1.7740   -6.8127    2.7908 O.3       1 <0>        -0.4977
     32 H3          1.5247    1.1403   -0.5060 H         1 <0>         0.0663
     33 H4          0.0761    0.9904   -1.5294 H         1 <0>         0.0546
     34 H5         -0.0942    1.3218    0.2111 H         1 <0>         0.0500
     35 H6         -1.3778   -0.9662   -1.3674 H         1 <0>         0.0648
     36 H7         -0.9134   -2.3737   -0.3918 H         1 <0>         0.0668
     37 H8         -1.9380    0.2898    0.6920 H         1 <0>         0.0714
     38 H9         -2.8781   -1.2003    0.5690 H         1 <0>         0.0723
     39 H10        -1.9548   -0.7745    2.8410 H         1 <0>         0.0818
     40 H11        -3.1516   -2.9141    1.0111 H         1 <0>         0.1318
     41 H12        -3.3562   -5.3319    1.3092 H         1 <0>         0.1312
     42 H13         0.0656   -5.2960    3.8604 H         1 <0>         0.1265
     43 H14         1.5814   -3.1042    3.3382 H         1 <0>         0.0806
     44 H15         0.0192    0.3727    2.3157 H         1 <0>         0.0829
     45 H16         1.9400   -0.4588    1.2592 H         1 <0>         0.0865
     46 H17         2.1928   -2.7861    1.7350 H         1 <0>         0.0665
     47 H18         0.5629   -3.1853    1.0923 H         1 <0>         0.0776
     48 H19         3.0962   -2.4734   -0.3892 H         1 <0>         0.0743
     49 H20         1.7856   -3.5935   -0.8598 H         1 <0>         0.0651
     50 H21         2.9453   -1.0743   -2.4175 H         1 <0>         0.3747
     51 H22        -0.1076    1.0383    4.0836 H         1 <0>         0.1323
     52 H23        -0.4568    3.4598    4.3476 H         1 <0>         0.1359
     53 H24         3.7655    4.0750    4.3784 H         1 <0>         0.1387
     54 H25         4.1255    1.6539    4.1243 H         1 <0>         0.1373
     55 H26         0.6669   -4.0120    5.3065 H         1 <0>         0.3815
     56 H27        -1.2869   -7.3402    2.1430 H         1 <0>         0.3917
@<TRIPOS>BOND
     1    1    2 1
     2    1   32 1
     3    1   33 1
     4    1   34 1
     5    2   16 1
     6    2   19 1
     7    2    3 1
     8    3    4 1
     9    3   35 1
    10    3   36 1
    11    4    5 1
    12    4   37 1
    13    4   38 1
    14    5   15 1
    15    5    6 1
    16    5   39 1
    17    6   11 ar
    18    6    7 ar
    19    7    8 ar
    20    7   40 1
    21    8    9 ar
    22    8   41 1
    23    9   10 ar
    24    9   31 1
    25   10   11 ar
    26   10   42 1
    27   11   12 1
    28   12   13 1
    29   12   30 1
    30   12   43 1
    31   13   14 1
    32   13   15 1
    33   13   22 1
    34   15   16 1
    35   15   44 1
    36   16   17 1
    37   16   45 1
    38   17   18 1
    39   17   46 1
    40   17   47 1
    41   18   19 1
    42   18   48 1
    43   18   49 1
    44   19   20 1
    45   19   21 1
    46   21   50 1
    47   22   23 1
    48   23   28 ar
    49   23   24 ar
    50   24   25 ar
    51   24   51 1
    52   25   26 ar
    53   25   52 1
    54   26   27 ar
    55   26   29 1
    56   27   28 ar
    57   27   53 1
    58   28   54 1
    59   30   55 1
    60   31   56 1
@<TRIPOS>MOLECULE
CHEMBL211349
   45    49     0     0     0
SMALL
USER_CHARGES

@<TRIPOS>ATOM
      1 C1         -0.0187    1.5258    0.0104 C.3       1 <0>        -0.1561
      2 C2          0.0021   -0.0041    0.0020 C.3       1 <0>        -0.1045
      3 C3          0.7182   -0.4975   -1.2568 C.3       1 <0>        -0.0366
      4 C4          2.1583    0.0163   -1.3197 C.3       1 <0>        -0.1066
      5 C5          2.9408   -0.5622   -0.1369 C.3       1 <0>        -0.1648
      6 C6          2.9017   -2.0673   -0.1641 C.2       1 <0>         0.3959
      7 O1          3.8113   -2.7044    0.3263 O.2       1 <0>        -0.4524
      8 C7          1.7694   -2.7670   -0.7800 C.2       1 <0>        -0.1620
      9 C8          0.7673   -2.0158   -1.3156 C.2       1 <0>         0.0347
     10 C9         -0.4138   -2.4419   -2.0664 C.ar      1 <0>        -0.1288
     11 C10        -1.0914   -3.6786   -2.1052 C.ar      1 <0>        -0.0357
     12 C11        -2.1487   -3.8689   -2.9377 C.ar      1 <0>        -0.1495
     13 C12        -2.5890   -2.8344   -3.7652 C.ar      1 <0>         0.1507
     14 C13        -1.9490   -1.5792   -3.7144 C.ar      1 <0>        -0.1758
     15 C14        -0.8709   -1.3809   -2.8511 C.ar      1 <0>         0.0161
     16 C15        -0.0656   -0.1382   -2.5314 C.3       1 <0>        -0.0793
     17 C16        -2.6451   -0.7257   -4.6745 C.2       1 <0>         0.0844
     18 N1         -3.5896   -1.4349   -5.2226 N.2       1 <0>        -0.2485
     19 N2         -3.5870   -2.7299   -4.6950 N.pl3     1 <0>        -0.5058
     20 H1         -4.1957   -3.4413   -4.9484 H         1 <0>         0.4427
     21 C17         1.7169   -4.2475   -0.8180 C.ar      1 <0>        -0.0254
     22 C18         0.7212   -4.9308   -0.1206 C.ar      1 <0>        -0.1115
     23 C19         0.6774   -6.3094   -0.1598 C.ar      1 <0>        -0.1222
     24 C20         1.6190   -7.0137   -0.8887 C.ar      1 <0>        -0.1172
     25 C21         2.6094   -6.3414   -1.5822 C.ar      1 <0>        -0.1172
     26 C22         2.6594   -4.9627   -1.5560 C.ar      1 <0>        -0.0939
     27 H2          1.0039    1.9031    0.0027 H         1 <0>         0.0613
     28 H3         -0.5459    1.8868   -0.8726 H         1 <0>         0.0597
     29 H4         -0.5289    1.8773    0.9072 H         1 <0>         0.0597
     30 H5          0.5293   -0.3651    0.8851 H         1 <0>         0.0705
     31 H6         -1.0205   -0.3814    0.0098 H         1 <0>         0.0708
     32 H7          2.6197   -0.3031   -2.2542 H         1 <0>         0.0757
     33 H8          2.1608    1.1048   -1.2621 H         1 <0>         0.0882
     34 H9          3.9769   -0.2282   -0.1931 H         1 <0>         0.0994
     35 H10         2.4992   -0.2076    0.7944 H         1 <0>         0.1049
     36 H11        -0.7655   -4.4850   -1.4649 H         1 <0>         0.1423
     37 H12        -2.6504   -4.8251   -2.9594 H         1 <0>         0.1315
     38 H13        -0.7289    0.7063   -2.3439 H         1 <0>         0.0965
     39 H14         0.6202    0.0903   -3.3472 H         1 <0>         0.0966
     40 H15        -2.4175    0.3077   -4.8905 H         1 <0>         0.1995
     41 H16        -0.0139   -4.3820    0.4493 H         1 <0>         0.1229
     42 H17        -0.0932   -6.8397    0.3799 H         1 <0>         0.1245
     43 H18         1.5809   -8.0927   -0.9161 H         1 <0>         0.1225
     44 H19         3.3420   -6.8966   -2.1493 H         1 <0>         0.1235
     45 H20         3.4300   -4.4387   -2.1020 H         1 <0>         0.1194
@<TRIPOS>BOND
     1    1    2 1
     2    1   27 1
     3    1   28 1
     4    1   29 1
     5    2    3 1
     6    2   30 1
     7    2   31 1
     8    3    9 1
     9    3   16 1
    10    3    4 1
    11    4    5 1
    12    4   32 1
    13    4   33 1
    14    5    6 1
    15    5   34 1
    16    5   35 1
    17    6    7 2
    18    6    8 1
    19    8    9 2
    20    8   21 1
    21    9   10 1
    22   10   15 ar
    23   10   11 ar
    24   11   12 ar
    25   11   36 1
    26   12   13 ar
    27   12   37 1
    28   13   19 1
    29   13   14 ar
    30   14   15 ar
    31   14   17 1
    32   15   16 1
    33   16   38 1
    34   16   39 1
    35   17   18 2
    36   17   40 1
    37   18   19 1
    38   19   20 1
    39   21   26 ar
    40   21   22 ar
    41   22   23 ar
    42   22   41 1
    43   23   24 ar
    44   23   42 1
    45   24   25 ar
    46   24   43 1
    47   25   26 ar
    48   25   44 1
    49   26   45 1
@<TRIPOS>MOLECULE
CHEMBL211349__1
   45    49     0     0     0
SMALL
USER_CHARGES

@<TRIPOS>ATOM
      1 C1         -0.0187    1.5258    0.0104 C.3       1 <0>        -0.1553
      2 C2          0.0021   -0.0041    0.0020 C.3       1 <0>        -0.1040
      3 C3         -1.4333   -0.5336    0.0129 C.3       1 <0>        -0.0383
      4 C4         -2.2218   -0.0499   -1.2072 C.3       1 <0>        -0.1062
      5 C5         -1.5874   -0.6467   -2.4672 C.3       1 <0>        -0.1668
      6 C6         -1.5630   -2.1491   -2.3910 C.2       1 <0>         0.3951
      7 O1         -1.5939   -2.8015   -3.4146 O.2       1 <0>        -0.4582
      8 C7         -1.5037   -2.8150   -1.1368 C.2       1 <0>        -0.1744
      9 C8         -1.4745   -2.0537    0.0051 C.2       1 <0>         0.0474
     10 C9         -1.5147   -2.4759    1.4044 C.ar      1 <0>        -0.1285
     11 C10        -1.1540   -3.7103    2.0048 C.ar      1 <0>        -0.0486
     12 C11        -1.3159   -3.9382    3.3237 C.ar      1 <0>        -0.1110
     13 C12        -1.8566   -2.9306    4.1563 C.ar      1 <0>         0.1239
     14 C13        -2.2070   -1.6311    3.5598 C.ar      1 <0>        -0.2025
     15 C14        -1.9972   -1.4305    2.1851 C.ar      1 <0>         0.0205
     16 C15        -2.1563   -0.1913    1.3274 C.3       1 <0>        -0.0805
     17 C16        -2.7056   -0.8502    4.5916 C.2       1 <0>         0.1003
     18 N1         -2.6713   -1.5820    5.7120 N.pl3     1 <0>        -0.4213
     19 N2         -2.1515   -2.8520    5.4391 N.2       1 <0>        -0.3038
     20 H1         -2.9635   -1.2764    6.5850 H         1 <0>         0.4470
     21 C17        -1.4741   -4.2947   -1.0636 C.ar      1 <0>        -0.0226
     22 C18        -0.3516   -4.9482   -0.5561 C.ar      1 <0>        -0.1110
     23 C19        -0.3301   -6.3263   -0.4900 C.ar      1 <0>        -0.1221
     24 C20        -1.4192   -7.0595   -0.9260 C.ar      1 <0>        -0.1177
     25 C21        -2.5355   -6.4169   -1.4309 C.ar      1 <0>        -0.1179
     26 C22        -2.5710   -5.0391   -1.4967 C.ar      1 <0>        -0.0937
     27 H2          1.0039    1.9031    0.0027 H         1 <0>         0.0599
     28 H3         -0.5459    1.8868   -0.8726 H         1 <0>         0.0612
     29 H4         -0.5289    1.8773    0.9072 H         1 <0>         0.0584
     30 H5          0.5123   -0.3556   -0.8948 H         1 <0>         0.0714
     31 H6          0.5293   -0.3651    0.8851 H         1 <0>         0.0715
     32 H7         -3.2577   -0.3796   -1.1277 H         1 <0>         0.0752
     33 H8         -2.1845    1.0383   -1.2590 H         1 <0>         0.0870
     34 H9         -2.1654   -0.3409   -3.3393 H         1 <0>         0.0976
     35 H10        -0.5673   -0.2757   -2.5656 H         1 <0>         0.1028
     36 H11        -0.7374   -4.4913    1.3861 H         1 <0>         0.1397
     37 H12        -1.0328   -4.8915    3.7450 H         1 <0>         0.1335
     38 H13        -1.6857    0.6665    1.8078 H         1 <0>         0.0944
     39 H14        -3.2114    0.0083    1.1401 H         1 <0>         0.0952
     40 H15        -3.0580    0.1671    4.5065 H         1 <0>         0.1920
     41 H16         0.4994   -4.3768   -0.2157 H         1 <0>         0.1227
     42 H17         0.5388   -6.8335   -0.0974 H         1 <0>         0.1244
     43 H18        -1.3978   -8.1380   -0.8723 H         1 <0>         0.1220
     44 H19        -3.3826   -6.9947   -1.7701 H         1 <0>         0.1227
     45 H20        -3.4447   -4.5383   -1.8869 H         1 <0>         0.1184
@<TRIPOS>BOND
     1    1    2 1
     2    1   27 1
     3    1   28 1
     4    1   29 1
     5    2    3 1
     6    2   30 1
     7    2   31 1
     8    3    9 1
     9    3   16 1
    10    3    4 1
    11    4    5 1
    12    4   32 1
    13    4   33 1
    14    5    6 1
    15    5   34 1
    16    5   35 1
    17    6    7 2
    18    6    8 1
    19    8    9 2
    20    8   21 1
    21    9   10 1
    22   10   15 ar
    23   10   11 ar
    24   11   12 ar
    25   11   36 1
    26   12   13 ar
    27   12   37 1
    28   13   14 ar
    29   13   19 2
    30   14   15 ar
    31   14   17 2
    32   15   16 1
    33   16   38 1
    34   16   39 1
    35   17   40 1
    36   17   18 1
    37   18   20 1
    38   18   19 1
    39   21   26 ar
    40   21   22 ar
    41   22   23 ar
    42   22   41 1
    43   23   24 ar
    44   23   42 1
    45   24   25 ar
    46   24   43 1
    47   25   26 ar
    48   25   44 1
    49   26   45 1
@<TRIPOS>MOLECULE
CHEMBL135
   44    47     0     0     0
SMALL
USER_CHARGES

@<TRIPOS>ATOM
      1 C1         -0.0187    1.5258    0.0104 C.3       1 <0>        -0.1354
      2 C2          0.0021   -0.0041    0.0020 C.3       1 <0>        -0.0564
      3 C3         -1.4142   -0.5425    0.0489 C.3       1 <0>        -0.1016
      4 C4         -2.0973    0.0441    1.2987 C.3       1 <0>        -0.1130
      5 C5         -1.3125   -0.3073    2.5542 C.3       1 <0>        -0.0424
      6 H1         -1.3075   -1.3927    2.6533 H         1 <0>         0.0765
      7 C6         -1.9424    0.2651    3.7900 C.ar      1 <0>        -0.0773
      8 C7         -3.3273    0.3484    3.8443 C.ar      1 <0>        -0.1030
      9 C8         -3.9576    0.8569    4.9598 C.ar      1 <0>        -0.1472
     10 C9         -3.2003    1.2884    6.0396 C.ar      1 <0>         0.1024
     11 C10        -1.8198    1.2087    5.9840 C.ar      1 <0>        -0.1480
     12 C11        -1.1856    0.7013    4.8579 C.ar      1 <0>        -0.0577
     13 C12         0.3200    0.6669    4.8604 C.3       1 <0>        -0.0825
     14 C13         0.8561   -0.2331    3.7476 C.3       1 <0>        -0.1135
     15 C14         0.1446    0.1628    2.4542 C.3       1 <0>        -0.0739
     16 H2          0.1741    1.2443    2.3212 H         1 <0>         0.0865
     17 C15         0.7512   -0.5345    1.2564 C.3       1 <0>        -0.0835
     18 H3          0.6224   -1.6140    1.3350 H         1 <0>         0.0754
     19 C16         2.2091   -0.2046    0.9567 C.3       1 <0>        -0.1120
     20 C17         2.3296   -0.2454   -0.5872 C.3       1 <0>        -0.1564
     21 C18         0.8992   -0.5108   -1.1319 C.3       1 <0>         0.1090
     22 H4          0.7424   -1.5760   -1.3012 H         1 <0>         0.0609
     23 O1          0.6684    0.2327   -2.3302 O.3       1 <0>        -0.5588
     24 O2         -3.8114    1.7874    7.1461 O.3       1 <0>        -0.5003
     25 H5          1.0039    1.9031    0.0027 H         1 <0>         0.0539
     26 H6         -0.5459    1.8868   -0.8726 H         1 <0>         0.0599
     27 H7         -0.5289    1.8773    0.9072 H         1 <0>         0.0606
     28 H8         -1.9557   -0.2363   -0.8462 H         1 <0>         0.0693
     29 H9         -1.3938   -1.6303    0.1152 H         1 <0>         0.0628
     30 H10        -2.1534    1.1283    1.2019 H         1 <0>         0.0698
     31 H11        -3.1059   -0.3612    1.3804 H         1 <0>         0.0659
     32 H12        -3.9166    0.0119    3.0041 H         1 <0>         0.1276
     33 H13        -5.0353    0.9194    4.9932 H         1 <0>         0.1275
     34 H14        -1.2303    1.5447    6.8243 H         1 <0>         0.1259
     35 H15         0.7005    1.6781    4.7162 H         1 <0>         0.0774
     36 H16         0.6668    0.2900    5.8226 H         1 <0>         0.0749
     37 H17         1.9304   -0.0841    3.6397 H         1 <0>         0.0720
     38 H18         0.6512   -1.2764    3.9877 H         1 <0>         0.0665
     39 H19         2.4554    0.7900    1.3285 H         1 <0>         0.0683
     40 H20         2.8651   -0.9498    1.4065 H         1 <0>         0.0656
     41 H21         2.7000    0.7100   -0.9588 H         1 <0>         0.0739
     42 H22         3.0000   -1.0500   -0.8889 H         1 <0>         0.0643
     43 H23         1.2119   -0.0490   -3.0787 H         1 <0>         0.3759
     44 H24        -4.0214    1.1203    7.8140 H         1 <0>         0.3901
@<TRIPOS>BOND
     1    1    2 1
     2    1   25 1
     3    1   26 1
     4    1   27 1
     5    2   17 1
     6    2   21 1
     7    2    3 1
     8    3    4 1
     9    3   28 1
    10    3   29 1
    11    4    5 1
    12    4   30 1
    13    4   31 1
    14    5    6 1
    15    5   15 1
    16    5    7 1
    17    7   12 ar
    18    7    8 ar
    19    8    9 ar
    20    8   32 1
    21    9   10 ar
    22    9   33 1
    23   10   11 ar
    24   10   24 1
    25   11   12 ar
    26   11   34 1
    27   12   13 1
    28   13   14 1
    29   13   35 1
    30   13   36 1
    31   14   15 1
    32   14   37 1
    33   14   38 1
    34   15   16 1
    35   15   17 1
    36   17   18 1
    37   17   19 1
    38   19   20 1
    39   19   39 1
    40   19   40 1
    41   20   21 1
    42   20   41 1
    43   20   42 1
    44   21   22 1
    45   21   23 1
    46   23   43 1
    47   24   44 1
@<TRIPOS>MOLECULE
CHEMBL318473
   54    59     0     0     0
SMALL
USER_CHARGES

@<TRIPOS>ATOM
      1 C1         -0.0156    1.3806    0.0309 C.ar      1 <0>        -0.1124
      2 C2          1.1700    2.0933    0.0453 C.ar      1 <0>        -0.1186
      3 C3          2.3786    1.4276    0.0269 C.ar      1 <0>        -0.1046
      4 C4          2.4033    0.0340   -0.0063 C.ar      1 <0>        -0.0582
      5 C5          1.2053   -0.6788   -0.0208 C.ar      1 <0>        -0.1047
      6 C6          0.0027   -0.0022   -0.0022 C.ar      1 <0>        -0.1188
      7 C7          3.6986   -0.6870   -0.0267 C.ar      1 <0>        -0.0062
      8 C8          4.8957    0.0296   -0.0068 C.ar      1 <0>        -0.1266
      9 C9          6.0988   -0.6387   -0.0252 C.ar      1 <0>        -0.0505
     10 C10         6.1210   -2.0356   -0.0639 C.ar      1 <0>        -0.1688
     11 C11         4.9213   -2.7522   -0.0838 C.ar      1 <0>        -0.0662
     12 C12         3.7195   -2.0818   -0.0599 C.ar      1 <0>        -0.1254
     13 C13         7.4119   -2.7542   -0.0842 C.2       1 <0>         0.4657
     14 O1          8.4543   -2.1313   -0.1815 O.2       1 <0>        -0.4137
     15 C14         7.4374   -4.1689    0.0096 C.2       1 <0>        -0.0425
     16 C15         8.5817   -4.9476    0.1089 C.2       1 <0>        -0.0181
     17 C16         8.1087   -6.3378    0.1801 C.ar      1 <0>        -0.1432
     18 C17         8.7490   -7.5733    0.2876 C.ar      1 <0>        -0.0335
     19 C18         8.0091   -8.7201    0.3312 C.ar      1 <0>        -0.1585
     20 C19         6.6183   -8.6625    0.2684 C.ar      1 <0>         0.1544
     21 C20         5.9681   -7.4457    0.1611 C.ar      1 <0>        -0.1448
     22 C21         6.7056   -6.2692    0.1165 C.ar      1 <0>         0.0922
     23 O2          6.3522   -4.9715    0.0224 O.3       1 <0>        -0.1684
     24 O3          5.8944   -9.8108    0.3123 O.3       1 <0>        -0.4903
     25 C22         9.9801   -4.4787    0.1371 C.ar      1 <0>        -0.0192
     26 C23        10.5970   -4.1834    1.3444 C.ar      1 <0>        -0.0867
     27 C24        11.9131   -3.7411    1.3774 C.ar      1 <0>        -0.1149
     28 C25        12.6340   -3.5848    0.2311 C.ar      1 <0>        -0.0947
     29 C26        12.0497   -3.8721   -1.0146 C.ar      1 <0>        -0.0502
     30 C27        10.7109   -4.3303   -1.0684 C.ar      1 <0>        -0.0217
     31 C28        10.1312   -4.6216   -2.3104 C.ar      1 <0>        -0.1061
     32 C29        10.8628   -4.4671   -3.4496 C.ar      1 <0>        -0.1105
     33 C30        12.1820   -4.0228   -3.3986 C.ar      1 <0>        -0.1162
     34 C31        12.7724   -3.7173   -2.2103 C.ar      1 <0>        -0.1031
     35 H1         -0.9591    1.9058    0.0499 H         1 <0>         0.1248
     36 H2          1.1497    3.1728    0.0707 H         1 <0>         0.1265
     37 H3          3.3036    1.9850    0.0379 H         1 <0>         0.1273
     38 H4          1.2183   -1.7584   -0.0469 H         1 <0>         0.1270
     39 H5         -0.9260   -0.5534   -0.0130 H         1 <0>         0.1264
     40 H6          4.8783    1.1090    0.0228 H         1 <0>         0.1343
     41 H7          7.0252   -0.0839   -0.0101 H         1 <0>         0.1384
     42 H8          4.9373   -3.8316   -0.1141 H         1 <0>         0.1472
     43 H9          2.7923   -2.6355   -0.0712 H         1 <0>         0.1333
     44 H10         9.8268   -7.6221    0.3359 H         1 <0>         0.1371
     45 H11         8.5042   -9.6763    0.4144 H         1 <0>         0.1420
     46 H12         4.8898   -7.4107    0.1123 H         1 <0>         0.1447
     47 H13         5.6474  -10.0861    1.2057 H         1 <0>         0.3991
     48 H14        10.0482   -4.2983    2.2674 H         1 <0>         0.1234
     49 H15        12.3734   -3.5166    2.3282 H         1 <0>         0.1280
     50 H16        13.6561   -3.2392    0.2802 H         1 <0>         0.1295
     51 H17         9.1094   -4.9672   -2.3646 H         1 <0>         0.1189
     52 H18        10.4137   -4.6927   -4.4056 H         1 <0>         0.1233
     53 H19        12.7411   -3.9088   -4.3155 H         1 <0>         0.1247
     54 H20        13.7957   -3.3727   -2.1854 H         1 <0>         0.1292
@<TRIPOS>BOND
     1    1    6 ar
     2    1    2 ar
     3    1   35 1
     4    2    3 ar
     5    2   36 1
     6    3    4 ar
     7    3   37 1
     8    4    5 ar
     9    4    7 1
    10    5    6 ar
    11    5   38 1
    12    6   39 1
    13    7   12 ar
    14    7    8 ar
    15    8    9 ar
    16    8   40 1
    17    9   10 ar
    18    9   41 1
    19   10   11 ar
    20   10   13 1
    21   11   12 ar
    22   11   42 1
    23   12   43 1
    24   13   14 2
    25   13   15 1
    26   15   23 1
    27   15   16 2
    28   16   17 1
    29   16   25 1
    30   17   22 ar
    31   17   18 ar
    32   18   19 ar
    33   18   44 1
    34   19   20 ar
    35   19   45 1
    36   20   21 ar
    37   20   24 1
    38   21   22 ar
    39   21   46 1
    40   22   23 1
    41   24   47 1
    42   25   30 ar
    43   25   26 ar
    44   26   27 ar
    45   26   48 1
    46   27   28 ar
    47   27   49 1
    48   28   29 ar
    49   28   50 1
    50   29   34 ar
    51   29   30 ar
    52   30   31 ar
    53   31   32 ar
    54   31   51 1
    55   32   33 ar
    56   32   52 1
    57   33   34 ar
    58   33   53 1
    59   34   54 1
@<TRIPOS>MOLECULE
CHEMBL124474
   65    69     0     0     0
SMALL
USER_CHARGES

@<TRIPOS>ATOM
      1 C1          0.2993    1.2628   -0.6808 C.ar      1 <0>        -0.1153
      2 C2          1.4359    2.0210   -0.4709 C.ar      1 <0>        -0.0968
      3 C3          2.6630    1.4013   -0.3250 C.ar      1 <0>        -0.0765
      4 C4          2.7533    0.0234   -0.3884 C.ar      1 <0>        -0.0713
      5 C5          1.6165   -0.7349   -0.5974 C.ar      1 <0>        -0.1149
      6 C6          0.3897   -0.1151   -0.7448 C.ar      1 <0>        -0.0879
      7 C7         -0.8495   -0.9418   -0.9731 C.3       1 <0>        -0.0741
      8 C8         -1.0595   -1.1416   -2.4754 C.3       1 <0>        -0.1446
      9 C9         -2.3176   -1.9809   -2.7073 C.3       1 <0>        -0.0109
     10 N1         -2.5193   -2.1728   -4.1497 N.4       1 <0>        -0.3830
     11 C10        -2.7859   -0.8752   -4.7818 C.3       1 <0>        -0.0121
     12 C11        -2.9165   -1.0582   -6.2954 C.3       1 <0>        -0.1462
     13 C12        -4.0723   -2.0185   -6.5902 C.3       1 <0>        -0.1395
     14 C13        -3.8197   -3.3435   -5.8651 C.3       1 <0>        -0.1467
     15 C14        -3.6557   -3.0759   -4.3674 C.3       1 <0>        -0.0067
     16 C15         3.9022    2.2280   -0.0971 C.3       1 <0>         0.1464
     17 H1          3.7219    3.2525   -0.4226 H         1 <0>         0.0957
     18 C16         4.2588    2.2187    1.3988 C.3       1 <0>        -0.0644
     19 H2          3.4016    2.5454    1.9874 H         1 <0>         0.1393
     20 S1          5.6442    3.3784    1.6224 S.3       1 <0>        -0.0816
     21 C17         6.6920    2.9957    0.2526 C.ar      1 <0>        -0.1486
     22 C18         7.9911    3.4862    0.2397 C.ar      1 <0>        -0.0894
     23 C19         8.8298    3.2070   -0.8271 C.ar      1 <0>         0.0979
     24 C20         8.3637    2.4374   -1.8829 C.ar      1 <0>        -0.1071
     25 C21         7.0742    1.9472   -1.8691 C.ar      1 <0>        -0.1151
     26 C22         6.2239    2.2159   -0.7990 C.ar      1 <0>         0.1213
     27 O1          4.9821    1.6782   -0.8363 O.3       1 <0>        -0.3048
     28 O2         10.1028    3.6850   -0.8392 O.3       1 <0>        -0.4919
     29 C23         4.6732    0.8324    1.8200 C.ar      1 <0>        -0.0886
     30 C24         5.9210    0.3494    1.4717 C.ar      1 <0>        -0.0883
     31 C25         6.3031   -0.9213    1.8563 C.ar      1 <0>        -0.1408
     32 C26         5.4338   -1.7126    2.5930 C.ar      1 <0>         0.1149
     33 C27         4.1825   -1.2254    2.9417 C.ar      1 <0>        -0.1449
     34 C28         3.8072    0.0479    2.5591 C.ar      1 <0>        -0.0812
     35 O3          5.8072   -2.9631    2.9722 O.3       1 <0>        -0.5002
     36 H3         -0.6600    1.7467   -0.7904 H         1 <0>         0.1258
     37 H4          1.3654    3.0976   -0.4214 H         1 <0>         0.1292
     38 H5          3.7120   -0.4607   -0.2751 H         1 <0>         0.1294
     39 H6          1.6872   -1.8114   -0.6477 H         1 <0>         0.1236
     40 H7         -0.7331   -1.9120   -0.4903 H         1 <0>         0.0841
     41 H8         -1.7125   -0.4270   -0.5509 H         1 <0>         0.0839
     42 H9         -1.1759   -0.1714   -2.9583 H         1 <0>         0.0890
     43 H10        -0.1964   -1.6564   -2.8976 H         1 <0>         0.0887
     44 H11        -2.2012   -2.9511   -2.2244 H         1 <0>         0.1317
     45 H12        -3.1806   -1.4661   -2.2851 H         1 <0>         0.1300
     46 H13        -3.7132   -0.4619   -4.3849 H         1 <0>         0.1282
     47 H14        -1.9640   -0.1918   -4.5684 H         1 <0>         0.1311
     48 H15        -3.1162   -0.0939   -6.7627 H         1 <0>         0.1116
     49 H16        -1.9896   -1.4712   -6.6934 H         1 <0>         0.0872
     50 H17        -5.0072   -1.5827   -6.2379 H         1 <0>         0.0816
     51 H18        -4.1336   -2.1965   -7.6638 H         1 <0>         0.0941
     52 H19        -4.6651   -4.0128   -6.0248 H         1 <0>         0.1120
     53 H20        -2.9116   -3.8040   -6.2541 H         1 <0>         0.0873
     54 H21        -3.4759   -4.0172   -3.8481 H         1 <0>         0.1297
     55 H22        -4.5644   -2.6157   -3.9794 H         1 <0>         0.1280
     56 H23         8.3486    4.0863    1.0633 H         1 <0>         0.1406
     57 H24         9.0127    2.2210   -2.7186 H         1 <0>         0.1422
     58 H25         6.7205    1.3495   -2.6961 H         1 <0>         0.1399
     59 H26        10.7494    3.0922   -0.4325 H         1 <0>         0.3945
     60 H27         6.5974    0.9658    0.8982 H         1 <0>         0.1311
     61 H28         7.2776   -1.2984    1.5833 H         1 <0>         0.1301
     62 H29         3.5040   -1.8395    3.5151 H         1 <0>         0.1306
     63 H30         2.8349    0.4293    2.8340 H         1 <0>         0.1251
     64 H31         6.2515   -2.9976    3.8303 H         1 <0>         0.3953
     65 H32        -1.6877   -2.5769   -4.5537 H         1 <0>         0.4222
@<TRIPOS>BOND
     1    1    6 ar
     2    1    2 ar
     3    1   36 1
     4    2    3 ar
     5    2   37 1
     6    3    4 ar
     7    3   16 1
     8    4    5 ar
     9    4   38 1
    10    5    6 ar
    11    5   39 1
    12    6    7 1
    13    7    8 1
    14    7   40 1
    15    7   41 1
    16    8    9 1
    17    8   42 1
    18    8   43 1
    19    9   10 1
    20    9   44 1
    21    9   45 1
    22   10   15 1
    23   10   11 1
    24   10   65 1
    25   11   12 1
    26   11   46 1
    27   11   47 1
    28   12   13 1
    29   12   48 1
    30   12   49 1
    31   13   14 1
    32   13   50 1
    33   13   51 1
    34   14   15 1
    35   14   52 1
    36   14   53 1
    37   15   54 1
    38   15   55 1
    39   16   17 1
    40   16   27 1
    41   16   18 1
    42   18   19 1
    43   18   20 1
    44   18   29 1
    45   20   21 1
    46   21   26 ar
    47   21   22 ar
    48   22   23 ar
    49   22   56 1
    50   23   24 ar
    51   23   28 1
    52   24   25 ar
    53   24   57 1
    54   25   26 ar
    55   25   58 1
    56   26   27 1
    57   28   59 1
    58   29   34 ar
    59   29   30 ar
    60   30   31 ar
    61   30   60 1
    62   31   32 ar
    63   31   61 1
    64   32   33 ar
    65   32   35 1
    66   33   34 ar
    67   33   62 1
    68   34   63 1
    69   35   64 1
@<TRIPOS>MOLECULE
CHEMBL184367
   67    72     0     0     0
SMALL
USER_CHARGES

@<TRIPOS>ATOM
      1 C1          0.4444   -0.4716   -0.7508 C.ar      1 <0>        -0.0874
      2 C2          1.6413    0.2127   -0.8378 C.ar      1 <0>        -0.1389
      3 C3          1.7270    1.5190   -0.3788 C.ar      1 <0>         0.1157
      4 C4          0.6100    2.1349    0.1667 C.ar      1 <0>        -0.1460
      5 C5         -0.5846    1.4463    0.2515 C.ar      1 <0>        -0.0836
      6 C6         -0.6675    0.1444   -0.2067 C.ar      1 <0>        -0.0897
      7 C7         -1.9720   -0.6043   -0.1133 C.3       1 <0>        -0.0640
      8 H1         -2.7891    0.0939    0.0687 H         1 <0>         0.1382
      9 C8         -1.9031   -1.6391    1.0222 C.3       1 <0>         0.1499
     10 H2         -2.7985   -2.2604    1.0041 H         1 <0>         0.0961
     11 O1         -0.7558   -2.4542    0.8376 O.3       1 <0>        -0.3049
     12 C9         -0.5745   -3.1945   -0.2811 C.ar      1 <0>         0.1212
     13 C10         0.2607   -4.3056   -0.1905 C.ar      1 <0>        -0.1141
     14 C11         0.5027   -5.0955   -1.2954 C.ar      1 <0>        -0.1061
     15 C12        -0.0850   -4.7905   -2.5144 C.ar      1 <0>         0.0984
     16 C13        -0.9224   -3.6914   -2.6151 C.ar      1 <0>        -0.0901
     17 C14        -1.1719   -2.9001   -1.5016 C.ar      1 <0>        -0.1478
     18 S1         -2.2724   -1.5236   -1.6557 S.3       1 <0>        -0.0843
     19 O2          0.1600   -5.5656   -3.6045 O.3       1 <0>        -0.4915
     20 C15        -1.8102   -0.9276    2.3475 C.ar      1 <0>        -0.1052
     21 C16        -0.5968   -0.4212    2.7752 C.ar      1 <0>        -0.0345
     22 C17        -0.5088    0.2310    3.9899 C.ar      1 <0>        -0.1420
     23 C18        -1.6393    0.3780    4.7804 C.ar      1 <0>         0.1248
     24 C19        -2.8557   -0.1306    4.3487 C.ar      1 <0>        -0.2040
     25 C20        -2.9395   -0.7775    3.1309 C.ar      1 <0>        -0.0588
     26 O3         -1.5553    1.0188    5.9759 O.3       1 <0>        -0.3255
     27 C21        -2.7595    1.1332    6.7367 C.3       1 <0>         0.0290
     28 C22        -2.4698    1.8785    8.0411 C.3       1 <0>        -0.0102
     29 N1         -2.0692    3.2589    7.7377 N.4       1 <0>        -0.3923
     30 C23        -1.7987    4.0131    8.9906 C.3       1 <0>         0.0337
     31 C24        -2.9536    3.7149    9.9601 C.3       1 <0>        -0.1482
     32 C25        -4.2537    4.2649    9.3664 C.3       1 <0>        -0.1404
     33 C26        -4.4525    3.7089    7.9535 C.3       1 <0>        -0.1493
     34 C27        -3.1960    4.0074    7.1199 C.3       1 <0>         0.0287
     35 C28        -2.8280    5.4936    7.3348 C.3       1 <0>        -0.1395
     36 C29        -1.9047    5.4973    8.5710 C.3       1 <0>        -0.1416
     37 O4          2.9035    2.1942   -0.4629 O.3       1 <0>        -0.4998
     38 H3          0.3759   -1.4871   -1.1121 H         1 <0>         0.1323
     39 H4          2.5096   -0.2690   -1.2626 H         1 <0>         0.1315
     40 H5          0.6743    3.1516    0.5251 H         1 <0>         0.1293
     41 H6         -1.4545    1.9252    0.6761 H         1 <0>         0.1234
     42 H7          0.7236   -4.5510    0.7539 H         1 <0>         0.1413
     43 H8          1.1522   -5.9542   -1.2111 H         1 <0>         0.1429
     44 H9         -1.3820   -3.4493   -3.5620 H         1 <0>         0.1404
     45 H10        -0.4613   -6.2986   -3.7135 H         1 <0>         0.3945
     46 H11         0.2830   -0.5359    2.1595 H         1 <0>         0.1386
     47 H12         0.4393    0.6258    4.3239 H         1 <0>         0.1349
     48 H13        -3.7372   -0.0175    4.9624 H         1 <0>         0.1309
     49 H14        -3.8871   -1.1697    2.7924 H         1 <0>         0.1345
     50 H15        -3.5024    1.6846    6.1604 H         1 <0>         0.0849
     51 H16        -3.1415    0.1380    6.9641 H         1 <0>         0.1078
     52 H17        -3.3664    1.8883    8.6609 H         1 <0>         0.1587
     53 H18        -1.6640    1.3756    8.5757 H         1 <0>         0.1410
     54 H19        -0.8234    3.7732    9.4141 H         1 <0>         0.1508
     55 H20        -3.0434    2.6378   10.1007 H         1 <0>         0.0903
     56 H21        -2.7584    4.1950   10.9191 H         1 <0>         0.1131
     57 H22        -5.0934    3.9674    9.9945 H         1 <0>         0.0945
     58 H23        -4.2012    5.3528    9.3240 H         1 <0>         0.0892
     59 H24        -4.6097    2.6315    8.0038 H         1 <0>         0.0891
     60 H25        -5.3180    4.1847    7.4924 H         1 <0>         0.1128
     61 H26        -3.3314    3.7550    6.0682 H         1 <0>         0.1463
     62 H27        -2.2989    5.8830    6.4650 H         1 <0>         0.0985
     63 H28        -3.7246    6.0821    7.5293 H         1 <0>         0.1132
     64 H29        -2.3474    6.0876    9.3733 H         1 <0>         0.1136
     65 H30        -0.9217    5.8886    8.3090 H         1 <0>         0.0991
     66 H31         3.0167    2.6858   -1.2878 H         1 <0>         0.3954
     67 H32        -1.2616    3.2694    7.1328 H         1 <0>         0.4308
@<TRIPOS>BOND
     1    1    6 ar
     2    1    2 ar
     3    1   38 1
     4    2    3 ar
     5    2   39 1
     6    3    4 ar
     7    3   37 1
     8    4    5 ar
     9    4   40 1
    10    5    6 ar
    11    5   41 1
    12    6    7 1
    13    7    8 1
    14    7   18 1
    15    7    9 1
    16    9   10 1
    17    9   11 1
    18    9   20 1
    19   11   12 1
    20   12   17 ar
    21   12   13 ar
    22   13   14 ar
    23   13   42 1
    24   14   15 ar
    25   14   43 1
    26   15   16 ar
    27   15   19 1
    28   16   17 ar
    29   16   44 1
    30   17   18 1
    31   19   45 1
    32   20   25 ar
    33   20   21 ar
    34   21   22 ar
    35   21   46 1
    36   22   23 ar
    37   22   47 1
    38   23   24 ar
    39   23   26 1
    40   24   25 ar
    41   24   48 1
    42   25   49 1
    43   26   27 1
    44   27   28 1
    45   27   50 1
    46   27   51 1
    47   28   29 1
    48   28   52 1
    49   28   53 1
    50   29   34 1
    51   29   30 1
    52   29   67 1
    53   30   36 1
    54   30   31 1
    55   30   54 1
    56   31   32 1
    57   31   55 1
    58   31   56 1
    59   32   33 1
    60   32   57 1
    61   32   58 1
    62   33   34 1
    63   33   59 1
    64   33   60 1
    65   34   35 1
    66   34   61 1
    67   35   36 1
    68   35   62 1
    69   35   63 1
    70   36   64 1
    71   36   65 1
    72   37   66 1
@<TRIPOS>MOLECULE
CHEMBL362718
   60    64     0     0     0
SMALL
USER_CHARGES

@<TRIPOS>ATOM
      1 C1          1.0227   -0.1777   -0.6112 C.ar      1 <0>        -0.0896
      2 C2          2.1339    0.6414   -0.6630 C.ar      1 <0>        -0.1412
      3 C3          2.0489    1.9527   -0.2180 C.ar      1 <0>         0.1131
      4 C4          0.8477    2.4379    0.2781 C.ar      1 <0>        -0.1431
      5 C5         -0.2606    1.6148    0.3279 C.ar      1 <0>        -0.0793
      6 C6         -0.1734    0.3083   -0.1162 C.ar      1 <0>        -0.0868
      7 C7         -1.3841   -0.5873   -0.0612 C.3       1 <0>        -0.0614
      8 H1         -2.2833    0.0116    0.0833 H         1 <0>         0.1391
      9 C8         -1.2369   -1.5987    1.0878 C.3       1 <0>         0.1563
     10 H2         -2.0523   -2.3208    1.0447 H         1 <0>         0.0930
     11 O1          0.0038   -2.2752    0.9539 O.3       1 <0>        -0.3032
     12 C9          0.3116   -2.9972   -0.1490 C.ar      1 <0>         0.1265
     13 C10         1.2669   -4.0021   -0.0158 C.ar      1 <0>        -0.1164
     14 C11         1.6402   -4.7662   -1.1022 C.ar      1 <0>        -0.1071
     15 C12         1.0665   -4.5408   -2.3449 C.ar      1 <0>         0.0918
     16 C13         0.1107   -3.5481   -2.4882 C.ar      1 <0>        -0.0900
     17 C14        -0.2705   -2.7835   -1.3935 C.ar      1 <0>        -0.1473
     18 S1         -1.5178   -1.5465   -1.6028 S.3       1 <0>        -0.0927
     19 O2          1.4404   -5.2896   -3.4165 O.3       1 <0>        -0.4926
     20 C15        -1.2767   -0.8718    2.4073 C.ar      1 <0>        -0.1291
     21 C16        -0.1475   -0.2237    2.8726 C.ar      1 <0>        -0.0357
     22 C17        -0.1813    0.4430    4.0820 C.ar      1 <0>        -0.1528
     23 C18        -1.3497    0.4623    4.8297 C.ar      1 <0>         0.1468
     24 C19        -2.4816   -0.1884    4.3605 C.ar      1 <0>        -0.2135
     25 C20        -2.4441   -0.8493    3.1479 C.ar      1 <0>        -0.0585
     26 O3         -1.3854    1.1170    6.0200 O.3       1 <0>        -0.2948
     27 C21        -2.6220    1.0950    6.7358 C.3       1 <0>         0.0641
     28 C22        -2.4698    1.8785    8.0411 C.3       1 <0>         0.0597
     29 N1         -2.1866    3.2874    7.7364 N.3       1 <0>        -0.5468
     30 C23        -1.5359    3.9490    8.8696 C.3       1 <0>         0.0574
     31 C24        -0.8468    5.2339    8.3956 C.3       1 <0>        -0.0744
     32 S2         -2.1165    6.3488    7.7199 S.3       1 <0>        -0.2721
     33 C25        -3.0187    5.2738    6.5615 C.3       1 <0>        -0.0741
     34 C26        -3.3982    3.9832    7.2969 C.3       1 <0>         0.0533
     35 O4          3.1408    2.7604   -0.2675 O.3       1 <0>        -0.4990
     36 H3          1.0871   -1.1972   -0.9617 H         1 <0>         0.1303
     37 H4          3.0680    0.2613   -1.0493 H         1 <0>         0.1290
     38 H5          0.7791    3.4582    0.6255 H         1 <0>         0.1308
     39 H6         -1.1960    1.9921    0.7140 H         1 <0>         0.1260
     40 H7          1.7201   -4.1848    0.9473 H         1 <0>         0.1412
     41 H8          2.3820   -5.5422   -0.9848 H         1 <0>         0.1406
     42 H9         -0.3387   -3.3683   -3.4537 H         1 <0>         0.1385
     43 H10         0.9135   -6.0911   -3.5394 H         1 <0>         0.3917
     44 H11         0.7619   -0.2390    2.2901 H         1 <0>         0.1313
     45 H12         0.7013    0.9485    4.4453 H         1 <0>         0.1320
     46 H13        -3.3923   -0.1749    4.9407 H         1 <0>         0.1295
     47 H14        -3.3262   -1.3523    2.7801 H         1 <0>         0.1272
     48 H15        -3.4024    1.5515    6.1269 H         1 <0>         0.0632
     49 H16        -2.8933    0.0636    6.9607 H         1 <0>         0.0686
     50 H17        -3.3932    1.8097    8.6160 H         1 <0>         0.0637
     51 H18        -1.6479    1.4602    8.6222 H         1 <0>         0.0896
     52 H19        -2.2837    4.1958    9.6232 H         1 <0>         0.0502
     53 H20        -0.7937    3.2786    9.3031 H         1 <0>         0.0879
     54 H21        -0.3464    5.7140    9.2366 H         1 <0>         0.1089
     55 H22        -0.1177    4.9955    7.6212 H         1 <0>         0.0933
     56 H23        -3.9210    5.7796    6.2179 H         1 <0>         0.1078
     57 H24        -2.3824    5.0370    5.7087 H         1 <0>         0.0921
     58 H25        -3.9639    3.3368    6.6259 H         1 <0>         0.0837
     59 H26        -4.0107    4.2275    8.1648 H         1 <0>         0.0512
     60 H27         3.2270    3.2549   -1.0940 H         1 <0>         0.3921
@<TRIPOS>BOND
     1    1    6 ar
     2    1    2 ar
     3    1   36 1
     4    2    3 ar
     5    2   37 1
     6    3    4 ar
     7    3   35 1
     8    4    5 ar
     9    4   38 1
    10    5    6 ar
    11    5   39 1
    12    6    7 1
    13    7    8 1
    14    7   18 1
    15    7    9 1
    16    9   10 1
    17    9   11 1
    18    9   20 1
    19   11   12 1
    20   12   17 ar
    21   12   13 ar
    22   13   14 ar
    23   13   40 1
    24   14   15 ar
    25   14   41 1
    26   15   16 ar
    27   15   19 1
    28   16   17 ar
    29   16   42 1
    30   17   18 1
    31   19   43 1
    32   20   25 ar
    33   20   21 ar
    34   21   22 ar
    35   21   44 1
    36   22   23 ar
    37   22   45 1
    38   23   24 ar
    39   23   26 1
    40   24   25 ar
    41   24   46 1
    42   25   47 1
    43   26   27 1
    44   27   28 1
    45   27   48 1
    46   27   49 1
    47   28   29 1
    48   28   50 1
    49   28   51 1
    50   29   34 1
    51   29   30 1
    52   30   31 1
    53   30   52 1
    54   30   53 1
    55   31   32 1
    56   31   54 1
    57   31   55 1
    58   32   33 1
    59   33   34 1
    60   33   56 1
    61   33   57 1
    62   34   58 1
    63   34   59 1
    64   35   60 1
@<TRIPOS>MOLECULE
CHEMBL362718__1
   61    65     0     0     0
SMALL
USER_CHARGES

@<TRIPOS>ATOM
      1 C1          0.3555   -0.1246   -0.8681 C.ar      1 <0>        -0.0872
      2 C2          1.4788    0.6705   -0.9875 C.ar      1 <0>        -0.1388
      3 C3          1.4576    1.9746   -0.5148 C.ar      1 <0>         0.1160
      4 C4          0.3077    2.4768    0.0769 C.ar      1 <0>        -0.1463
      5 C5         -0.8130    1.6777    0.1940 C.ar      1 <0>        -0.0839
      6 C6         -0.7893    0.3782   -0.2779 C.ar      1 <0>        -0.0901
      7 C7         -2.0134   -0.4912   -0.1493 C.3       1 <0>        -0.0642
      8 H1         -2.8862    0.1252    0.0662 H         1 <0>         0.1382
      9 C8         -1.8091   -1.5224    0.9731 C.3       1 <0>         0.1493
     10 H2         -2.6419   -2.2256    0.9782 H         1 <0>         0.0965
     11 O1         -0.5968   -2.2240    0.7431 O.3       1 <0>        -0.3050
     12 C9         -0.3839   -2.9363   -0.3882 C.ar      1 <0>         0.1209
     13 C10         0.5550   -3.9639   -0.3360 C.ar      1 <0>        -0.1139
     14 C11         0.8334   -4.7199   -1.4559 C.ar      1 <0>        -0.1061
     15 C12         0.1790   -4.4636   -2.6520 C.ar      1 <0>         0.0989
     16 C13        -0.7614   -3.4482   -2.7144 C.ar      1 <0>        -0.0901
     17 C14        -1.0470   -2.6916   -1.5855 C.ar      1 <0>        -0.1478
     18 S1         -2.2772   -1.4245   -1.6900 S.3       1 <0>        -0.0835
     19 O2          0.4593   -5.2047   -3.7571 O.3       1 <0>        -0.4915
     20 C15        -1.7393   -0.8143    2.3016 C.ar      1 <0>        -0.1031
     21 C16        -0.5656   -0.1981    2.6944 C.ar      1 <0>        -0.0344
     22 C17        -0.4989    0.4513    3.9118 C.ar      1 <0>        -0.1410
     23 C18        -1.6111    0.4853    4.7404 C.ar      1 <0>         0.1227
     24 C19        -2.7878   -0.1333    4.3437 C.ar      1 <0>        -0.2031
     25 C20        -2.8509   -0.7770    3.1230 C.ar      1 <0>        -0.0587
     26 O3         -1.5479    1.1232    5.9387 O.3       1 <0>        -0.3279
     27 C21        -2.7314    1.1179    6.7396 C.3       1 <0>         0.0237
     28 C22        -2.4698    1.8785    8.0411 C.3       1 <0>        -0.0010
     29 N1         -2.1866    3.2874    7.7364 N.4       1 <0>        -0.3909
     30 C23        -1.7473    3.9638    8.9586 C.3       1 <0>        -0.0113
     31 C24        -1.0981    5.3073    8.6057 C.3       1 <0>        -0.1281
     32 S2         -2.3517    6.3524    7.8000 S.3       1 <0>        -0.1884
     33 C25        -3.0330    5.2462    6.5252 C.3       1 <0>        -0.1268
     34 C26        -3.3928    3.9119    7.1893 C.3       1 <0>        -0.0183
     35 O4          2.5615    2.7587   -0.6307 O.3       1 <0>        -0.4999
     36 H3          0.3701   -1.1384   -1.2400 H         1 <0>         0.1323
     37 H4          2.3729    0.2772   -1.4482 H         1 <0>         0.1316
     38 H5          0.2888    3.4916    0.4461 H         1 <0>         0.1293
     39 H6         -1.7085    2.0681    0.6546 H         1 <0>         0.1233
     40 H7          1.0705   -4.1706    0.5903 H         1 <0>         0.1413
     41 H8          1.5636   -5.5137   -1.4014 H         1 <0>         0.1431
     42 H9         -1.2733   -3.2443   -3.6433 H         1 <0>         0.1406
     43 H10        -0.0932   -5.9925   -3.8529 H         1 <0>         0.3947
     44 H11         0.3000   -0.2248    2.0490 H         1 <0>         0.1393
     45 H12         0.4184    0.9319    4.2185 H         1 <0>         0.1351
     46 H13        -3.6550   -0.1083    4.9870 H         1 <0>         0.1315
     47 H14        -3.7680   -1.2550    2.8118 H         1 <0>         0.1353
     48 H15        -3.5419    1.6003    6.1934 H         1 <0>         0.0877
     49 H16        -3.0099    0.0894    6.9696 H         1 <0>         0.1136
     50 H17        -3.3491    1.8151    8.6821 H         1 <0>         0.1539
     51 H18        -1.6142    1.4385    8.5534 H         1 <0>         0.1469
     52 H19        -2.6069    4.1360    9.6062 H         1 <0>         0.1446
     53 H20        -1.0230    3.3371    9.4789 H         1 <0>         0.1462
     54 H21        -0.7428    5.7936    9.5141 H         1 <0>         0.1557
     55 H22        -0.2627    5.1442    7.9247 H         1 <0>         0.1116
     56 H23        -3.9270    5.6932    6.0904 H         1 <0>         0.1546
     57 H24        -2.2885    5.0803    5.7465 H         1 <0>         0.1111
     58 H25        -3.8405    3.2482    6.4496 H         1 <0>         0.1417
     59 H26        -4.1060    4.0887    7.9944 H         1 <0>         0.1460
     60 H27         2.5985    3.2668   -1.4526 H         1 <0>         0.3957
     61 H28        -1.4489    3.3352    7.0496 H         1 <0>         0.4286
@<TRIPOS>BOND
     1    1    6 ar
     2    1    2 ar
     3    1   36 1
     4    2    3 ar
     5    2   37 1
     6    3    4 ar
     7    3   35 1
     8    4    5 ar
     9    4   38 1
    10    5    6 ar
    11    5   39 1
    12    6    7 1
    13    7    8 1
    14    7   18 1
    15    7    9 1
    16    9   10 1
    17    9   11 1
    18    9   20 1
    19   11   12 1
    20   12   17 ar
    21   12   13 ar
    22   13   14 ar
    23   13   40 1
    24   14   15 ar
    25   14   41 1
    26   15   16 ar
    27   15   19 1
    28   16   17 ar
    29   16   42 1
    30   17   18 1
    31   19   43 1
    32   20   25 ar
    33   20   21 ar
    34   21   22 ar
    35   21   44 1
    36   22   23 ar
    37   22   45 1
    38   23   24 ar
    39   23   26 1
    40   24   25 ar
    41   24   46 1
    42   25   47 1
    43   26   27 1
    44   27   28 1
    45   27   48 1
    46   27   49 1
    47   28   29 1
    48   28   50 1
    49   28   51 1
    50   29   34 1
    51   29   30 1
    52   29   61 1
    53   30   31 1
    54   30   52 1
    55   30   53 1
    56   31   32 1
    57   31   54 1
    58   31   55 1
    59   32   33 1
    60   33   34 1
    61   33   56 1
    62   33   57 1
    63   34   58 1
    64   34   59 1
    65   35   60 1
@<TRIPOS>MOLECULE
CHEMBL346401
   71    74     0     0     0
SMALL
USER_CHARGES

@<TRIPOS>ATOM
      1 C1         -0.0178    1.4648    0.0101 C.3       1 <0>        -0.0488
      2 N1          0.0021   -0.0041    0.0020 N.4       1 <0>        -0.3889
      3 C2         -1.3762   -0.5105    0.0016 C.3       1 <0>        -0.0220
      4 C3         -1.3581   -2.0376   -0.1225 C.3       1 <0>         0.0932
      5 N2         -0.5114   -2.5826    0.9500 N.pl3     1 <0>        -0.5666
      6 C4          0.8341   -2.0147    1.1271 C.3       1 <0>         0.0931
      7 C5          0.7126   -0.4887    1.1922 C.3       1 <0>        -0.0218
      8 C6         -0.9665   -3.5975    1.7670 C.ar      1 <0>         0.6926
      9 N3         -0.1874   -4.0723    2.7340 N.ar      1 <0>        -0.6240
     10 C7         -0.6257   -5.0498    3.5209 C.ar      1 <0>         0.6987
     11 N4         -1.8433   -5.5526    3.3410 N.ar      1 <0>        -0.6322
     12 C8         -2.6223   -5.0776    2.3745 C.ar      1 <0>         0.6996
     13 N5         -2.1858   -4.0965    1.5906 N.ar      1 <0>        -0.6237
     14 N6         -3.8860   -5.5999    2.1874 N.pl3     1 <0>        -0.6480
     15 C9         -4.3688   -6.6779    3.0540 C.3       1 <0>         0.0865
     16 C10        -5.7875   -7.0707    2.6372 C.3       1 <0>        -0.0828
     17 C11        -6.2841   -8.1796    3.5287 C.ar      1 <0>        -0.1184
     18 C12        -6.0589   -9.4986    3.1803 C.ar      1 <0>        -0.0926
     19 C13        -6.5134  -10.5169    3.9956 C.ar      1 <0>        -0.1425
     20 C14        -7.1961  -10.2153    5.1651 C.ar      1 <0>         0.1246
     21 C15        -7.4204   -8.8911    5.5127 C.ar      1 <0>        -0.1427
     22 C16        -6.9593   -7.8763    4.6966 C.ar      1 <0>        -0.0929
     23 O1         -7.6447  -11.2153    5.9686 O.3       1 <0>        -0.4957
     24 N7          0.1832   -5.5430    4.5245 N.pl3     1 <0>        -0.6474
     25 C17        -0.2999   -6.6204    5.3918 C.3       1 <0>         0.0820
     26 C18         0.7828   -6.9782    6.4118 C.3       1 <0>        -0.1327
     27 C19         0.2782   -8.1034    7.3176 C.3       1 <0>        -0.1116
     28 C20         1.3610   -8.4612    8.3376 C.3       1 <0>        -0.0784
     29 C21         0.8640   -9.5694    9.2298 C.ar      1 <0>        -0.0947
     30 C22         0.1844   -9.2666   10.3949 C.ar      1 <0>        -0.1182
     31 C23        -0.2714  -10.2832   11.2132 C.ar      1 <0>        -0.1159
     32 C24        -0.0481  -11.6025   10.8663 C.ar      1 <0>        -0.1174
     33 C25         0.6307  -11.9053    9.7008 C.ar      1 <0>        -0.1157
     34 C26         1.0828  -10.8888    8.8802 C.ar      1 <0>        -0.1180
     35 H1          1.0047    1.8421    0.0024 H         1 <0>         0.1307
     36 H2         -0.5450    1.8259   -0.8730 H         1 <0>         0.1308
     37 H3         -0.5280    1.8163    0.9069 H         1 <0>         0.1243
     38 H4         -1.8678   -0.2272    0.9323 H         1 <0>         0.1366
     39 H5         -1.9199   -0.0838   -0.8413 H         1 <0>         0.1557
     40 H6         -2.3718   -2.4253   -0.0215 H         1 <0>         0.1481
     41 H7         -0.9491   -2.3215   -1.0921 H         1 <0>         0.1128
     42 H8          1.2698   -2.3873    2.0542 H         1 <0>         0.1480
     43 H9          1.4645   -2.2963    0.2836 H         1 <0>         0.1128
     44 H10         1.7080   -0.0460    1.2266 H         1 <0>         0.1556
     45 H11         0.1578   -0.2061    2.0868 H         1 <0>         0.1367
     46 H12        -4.4546   -5.2532    1.4820 H         1 <0>         0.4470
     47 H13        -3.7104   -7.5416    2.9607 H         1 <0>         0.0934
     48 H14        -4.3756   -6.3364    4.0891 H         1 <0>         0.0931
     49 H15        -6.4459   -6.2071    2.7306 H         1 <0>         0.0939
     50 H16        -5.7807   -7.4122    1.6021 H         1 <0>         0.0943
     51 H17        -5.5274   -9.7328    2.2698 H         1 <0>         0.1283
     52 H18        -6.3379  -11.5470    3.7226 H         1 <0>         0.1356
     53 H19        -7.9516   -8.6537    6.4226 H         1 <0>         0.1354
     54 H20        -7.1298   -6.8452    4.9690 H         1 <0>         0.1279
     55 H21        -7.0102  -11.4918    6.6439 H         1 <0>         0.3984
     56 H22         1.0716   -5.1764    4.6556 H         1 <0>         0.4467
     57 H23        -1.1974   -6.2906    5.9151 H         1 <0>         0.0916
     58 H24        -0.5333   -7.4967    4.7870 H         1 <0>         0.0918
     59 H25         1.6803   -7.3079    5.8885 H         1 <0>         0.0863
     60 H26         1.0161   -6.1019    7.0166 H         1 <0>         0.0858
     61 H27        -0.6193   -7.7736    7.8409 H         1 <0>         0.0721
     62 H28         0.0449   -8.9797    6.7128 H         1 <0>         0.0724
     63 H29         2.2585   -8.7909    7.8143 H         1 <0>         0.0759
     64 H30         1.5943   -7.5849    8.9424 H         1 <0>         0.0757
     65 H31         0.0100   -8.2359   10.6659 H         1 <0>         0.1197
     66 H32        -0.8017  -10.0466   12.1238 H         1 <0>         0.1246
     67 H33        -0.4036  -12.3967   11.5060 H         1 <0>         0.1253
     68 H34         0.8055  -12.9361    9.4299 H         1 <0>         0.1247
     69 H35         1.6099  -11.1255    7.9678 H         1 <0>         0.1199
     70 H36        -2.1629   -6.2664    3.9148 H         1 <0>         0.4424
     71 H37         0.4772   -0.3282   -0.8270 H         1 <0>         0.4293
@<TRIPOS>BOND
     1    1    2 1
     2    1   35 1
     3    1   36 1
     4    1   37 1
     5    2    7 1
     6    2    3 1
     7    2   71 1
     8    3    4 1
     9    3   38 1
    10    3   39 1
    11    4    5 1
    12    4   40 1
    13    4   41 1
    14    5    6 1
    15    5    8 1
    16    6    7 1
    17    6   42 1
    18    6   43 1
    19    7   44 1
    20    7   45 1
    21    8   13 ar
    22    8    9 ar
    23    9   10 ar
    24   10   11 ar
    25   10   24 1
    26   11   12 ar
    27   11   70 1
    28   12   13 ar
    29   12   14 1
    30   14   15 1
    31   14   46 1
    32   15   16 1
    33   15   47 1
    34   15   48 1
    35   16   17 1
    36   16   49 1
    37   16   50 1
    38   17   22 ar
    39   17   18 ar
    40   18   19 ar
    41   18   51 1
    42   19   20 ar
    43   19   52 1
    44   20   21 ar
    45   20   23 1
    46   21   22 ar
    47   21   53 1
    48   22   54 1
    49   23   55 1
    50   24   25 1
    51   24   56 1
    52   25   26 1
    53   25   57 1
    54   25   58 1
    55   26   27 1
    56   26   59 1
    57   26   60 1
    58   27   28 1
    59   27   61 1
    60   27   62 1
    61   28   29 1
    62   28   63 1
    63   28   64 1
    64   29   34 ar
    65   29   30 ar
    66   30   31 ar
    67   30   65 1
    68   31   32 ar
    69   31   66 1
    70   32   33 ar
    71   32   67 1
    72   33   34 ar
    73   33   68 1
    74   34   69 1
@<TRIPOS>MOLECULE
CHEMBL346401__1
   70    73     0     0     0
SMALL
USER_CHARGES

@<TRIPOS>ATOM
      1 C1         -0.0178    1.4648    0.0101 C.3       1 <0>        -0.0467
      2 N1          0.0021   -0.0041    0.0020 N.4       1 <0>        -0.3862
      3 C2         -1.3762   -0.5105    0.0016 C.3       1 <0>        -0.0213
      4 C3         -1.3581   -2.0376   -0.1225 C.3       1 <0>         0.1075
      5 N2         -0.5114   -2.5826    0.9500 N.pl3     1 <0>        -0.5980
      6 C4          0.8341   -2.0147    1.1271 C.3       1 <0>         0.1074
      7 C5          0.7126   -0.4887    1.1922 C.3       1 <0>        -0.0211
      8 C6         -0.9665   -3.5975    1.7670 C.ar      1 <0>         0.6561
      9 N3         -0.1874   -4.0723    2.7340 N.ar      1 <0>        -0.6810
     10 C7         -0.6257   -5.0498    3.5209 C.ar      1 <0>         0.6585
     11 N4         -1.8433   -5.5526    3.3410 N.ar      1 <0>        -0.6597
     12 C8         -2.6223   -5.0776    2.3745 C.ar      1 <0>         0.6591
     13 N5         -2.1858   -4.0965    1.5906 N.ar      1 <0>        -0.6808
     14 N6         -3.8860   -5.5999    2.1874 N.pl3     1 <0>        -0.6820
     15 C9         -4.3688   -6.6779    3.0540 C.3       1 <0>         0.1407
     16 C10        -5.7875   -7.0707    2.6372 C.3       1 <0>        -0.0908
     17 C11        -6.2841   -8.1796    3.5287 C.ar      1 <0>        -0.0966
     18 C12        -6.0589   -9.4986    3.1803 C.ar      1 <0>        -0.0947
     19 C13        -6.5134  -10.5169    3.9956 C.ar      1 <0>        -0.1427
     20 C14        -7.1961  -10.2153    5.1651 C.ar      1 <0>         0.1096
     21 C15        -7.4204   -8.8911    5.5127 C.ar      1 <0>        -0.1430
     22 C16        -6.9593   -7.8763    4.6966 C.ar      1 <0>        -0.0950
     23 O1         -7.6447  -11.2153    5.9686 O.3       1 <0>        -0.4992
     24 N7          0.1832   -5.5430    4.5245 N.pl3     1 <0>        -0.6811
     25 C17        -0.2999   -6.6204    5.3918 C.3       1 <0>         0.1346
     26 C18         0.7828   -6.9782    6.4118 C.3       1 <0>        -0.1337
     27 C19         0.2782   -8.1034    7.3176 C.3       1 <0>        -0.1085
     28 C20         1.3610   -8.4612    8.3376 C.3       1 <0>        -0.0796
     29 C21         0.8640   -9.5694    9.2298 C.ar      1 <0>        -0.0860
     30 C22         0.1844   -9.2666   10.3949 C.ar      1 <0>        -0.1183
     31 C23        -0.2714  -10.2832   11.2132 C.ar      1 <0>        -0.1174
     32 C24        -0.0481  -11.6025   10.8663 C.ar      1 <0>        -0.1228
     33 C25         0.6307  -11.9053    9.7008 C.ar      1 <0>        -0.1173
     34 C26         1.0828  -10.8888    8.8802 C.ar      1 <0>        -0.1182
     35 H1          1.0047    1.8421    0.0024 H         1 <0>         0.1253
     36 H2         -0.5450    1.8259   -0.8730 H         1 <0>         0.1254
     37 H3         -0.5280    1.8163    0.9069 H         1 <0>         0.1211
     38 H4         -1.8678   -0.2272    0.9323 H         1 <0>         0.1318
     39 H5         -1.9199   -0.0838   -0.8413 H         1 <0>         0.1443
     40 H6         -2.3718   -2.4253   -0.0215 H         1 <0>         0.1418
     41 H7         -0.9491   -2.3215   -1.0921 H         1 <0>         0.0923
     42 H8          1.2698   -2.3873    2.0542 H         1 <0>         0.1417
     43 H9          1.4645   -2.2963    0.2836 H         1 <0>         0.0923
     44 H10         1.7080   -0.0460    1.2266 H         1 <0>         0.1443
     45 H11         0.1578   -0.2061    2.0868 H         1 <0>         0.1318
     46 H12        -4.4546   -5.2532    1.4820 H         1 <0>         0.4167
     47 H13        -3.7104   -7.5416    2.9607 H         1 <0>         0.0742
     48 H14        -4.3756   -6.3364    4.0891 H         1 <0>         0.0739
     49 H15        -6.4459   -6.2071    2.7306 H         1 <0>         0.0814
     50 H16        -5.7807   -7.4122    1.6021 H         1 <0>         0.0819
     51 H17        -5.5274   -9.7328    2.2698 H         1 <0>         0.1269
     52 H18        -6.3379  -11.5470    3.7226 H         1 <0>         0.1308
     53 H19        -7.9516   -8.6537    6.4226 H         1 <0>         0.1306
     54 H20        -7.1298   -6.8452    4.9690 H         1 <0>         0.1265
     55 H21        -7.0102  -11.4918    6.6439 H         1 <0>         0.3937
     56 H22         1.0716   -5.1764    4.6556 H         1 <0>         0.4163
     57 H23        -1.1974   -6.2906    5.9151 H         1 <0>         0.0718
     58 H24        -0.5333   -7.4967    4.7870 H         1 <0>         0.0721
     59 H25         1.6803   -7.3079    5.8885 H         1 <0>         0.0720
     60 H26         1.0161   -6.1019    7.0166 H         1 <0>         0.0715
     61 H27        -0.6193   -7.7736    7.8409 H         1 <0>         0.0685
     62 H28         0.0449   -8.9797    6.7128 H         1 <0>         0.0688
     63 H29         2.2585   -8.7909    7.8143 H         1 <0>         0.0731
     64 H30         1.5943   -7.5849    8.9424 H         1 <0>         0.0729
     65 H31         0.0100   -8.2359   10.6659 H         1 <0>         0.1200
     66 H32        -0.8017  -10.0466   12.1238 H         1 <0>         0.1222
     67 H33        -0.4036  -12.3967   11.5060 H         1 <0>         0.1223
     68 H34         0.8055  -12.9361    9.4299 H         1 <0>         0.1224
     69 H35         1.6099  -11.1255    7.9678 H         1 <0>         0.1203
     70 H36         0.4772   -0.3282   -0.8270 H         1 <0>         0.4253
@<TRIPOS>BOND
     1    1    2 1
     2    1   35 1
     3    1   36 1
     4    1   37 1
     5    2    7 1
     6    2    3 1
     7    2   70 1
     8    3    4 1
     9    3   38 1
    10    3   39 1
    11    4    5 1
    12    4   40 1
    13    4   41 1
    14    5    6 1
    15    5    8 1
    16    6    7 1
    17    6   42 1
    18    6   43 1
    19    7   44 1
    20    7   45 1
    21    8   13 ar
    22    8    9 ar
    23    9   10 ar
    24   10   11 ar
    25   10   24 1
    26   11   12 ar
    27   12   13 ar
    28   12   14 1
    29   14   15 1
    30   14   46 1
    31   15   16 1
    32   15   47 1
    33   15   48 1
    34   16   17 1
    35   16   49 1
    36   16   50 1
    37   17   22 ar
    38   17   18 ar
    39   18   19 ar
    40   18   51 1
    41   19   20 ar
    42   19   52 1
    43   20   21 ar
    44   20   23 1
    45   21   22 ar
    46   21   53 1
    47   22   54 1
    48   23   55 1
    49   24   25 1
    50   24   56 1
    51   25   26 1
    52   25   57 1
    53   25   58 1
    54   26   27 1
    55   26   59 1
    56   26   60 1
    57   27   28 1
    58   27   61 1
    59   27   62 1
    60   28   29 1
    61   28   63 1
    62   28   64 1
    63   29   34 ar
    64   29   30 ar
    65   30   31 ar
    66   30   65 1
    67   31   32 ar
    68   31   66 1
    69   32   33 ar
    70   32   67 1
    71   33   34 ar
    72   33   68 1
    73   34   69 1
@<TRIPOS>MOLECULE
CHEMBL186598
   41    43     0     0     0
SMALL
USER_CHARGES

@<TRIPOS>ATOM
      1 C1         -0.3293    1.3137   -0.4864 C.3       1 <0>        -0.1538
      2 C2         -0.2372   -0.2046   -0.3209 C.3       1 <0>        -0.1176
      3 C3          0.6070   -0.5329    0.9121 C.3       1 <0>        -0.0782
      4 C4          0.6977   -2.0283    1.0752 C.ar      1 <0>        -0.1106
      5 C5          1.8272   -2.6994    0.6571 C.ar      1 <0>        -0.0649
      6 C6          1.9103   -4.0832    0.8083 C.ar      1 <0>        -0.0512
      7 C7          0.8496   -4.7840    1.3823 C.ar      1 <0>        -0.0287
      8 C8         -0.2768   -4.1073    1.7982 C.ar      1 <0>        -0.1412
      9 C9         -0.3541   -2.7282    1.6514 C.ar      1 <0>         0.1346
     10 O1         -1.4633   -2.0635    2.0673 O.3       1 <0>        -0.4919
     11 C10         0.9350   -6.2795    1.5472 C.3       1 <0>        -0.1025
     12 C11         1.6652   -6.6080    2.8510 C.3       1 <0>        -0.1449
     13 C12         3.1227   -4.8077    0.3596 C.2       1 <0>         0.1863
     14 C13         4.5174   -4.4471    0.6611 C.ar      1 <0>        -0.1976
     15 C14         5.1082   -3.4143    1.3905 C.ar      1 <0>        -0.0198
     16 C15         6.4682   -3.3441    1.4915 C.ar      1 <0>        -0.1712
     17 C16         7.2716   -4.2973    0.8702 C.ar      1 <0>         0.1719
     18 C17         6.7023   -5.3274    0.1429 C.ar      1 <0>        -0.1572
     19 C18         5.3206   -5.4118    0.0326 C.ar      1 <0>         0.1051
     20 O2          4.4948   -6.2765   -0.5915 O.3       1 <0>        -0.0868
     21 N1          3.1532   -5.8895   -0.3730 N.2       1 <0>        -0.2747
     22 O3          8.6230   -4.2147    0.9787 O.3       1 <0>        -0.4905
     23 H1          0.6716    1.7269   -0.6108 H         1 <0>         0.0554
     24 H2         -0.9307    1.5476   -1.3648 H         1 <0>         0.0561
     25 H3         -0.7943    1.7481    0.3986 H         1 <0>         0.0565
     26 H4         -1.2382   -0.6178   -0.1965 H         1 <0>         0.0591
     27 H5          0.2278   -0.6390   -1.2058 H         1 <0>         0.0627
     28 H6          1.6079   -0.1197    0.7877 H         1 <0>         0.0741
     29 H7          0.1420   -0.0985    1.7971 H         1 <0>         0.0824
     30 H8          2.6466   -2.1540    0.2127 H         1 <0>         0.1335
     31 H9         -1.0985   -4.6494    2.2424 H         1 <0>         0.1376
     32 H10        -2.1487   -1.9800    1.3904 H         1 <0>         0.3932
     33 H11        -0.0703   -6.6996    1.5779 H         1 <0>         0.0802
     34 H12         1.4819   -6.7070    0.7068 H         1 <0>         0.0893
     35 H13         2.6705   -6.1879    2.8202 H         1 <0>         0.0509
     36 H14         1.1182   -6.1805    3.6914 H         1 <0>         0.0591
     37 H15         1.7269   -7.6897    2.9702 H         1 <0>         0.0630
     38 H16         4.4909   -2.6716    1.8740 H         1 <0>         0.1395
     39 H17         6.9237   -2.5442    2.0563 H         1 <0>         0.1437
     40 H18         7.3303   -6.0633   -0.3373 H         1 <0>         0.1474
     41 H19         8.9863   -4.6894    1.7389 H         1 <0>         0.4015
@<TRIPOS>BOND
     1    1    2 1
     2    1   23 1
     3    1   24 1
     4    1   25 1
     5    2    3 1
     6    2   26 1
     7    2   27 1
     8    3    4 1
     9    3   28 1
    10    3   29 1
    11    4    9 ar
    12    4    5 ar
    13    5    6 ar
    14    5   30 1
    15    6    7 ar
    16    6   13 1
    17    7    8 ar
    18    7   11 1
    19    8    9 ar
    20    8   31 1
    21    9   10 1
    22   10   32 1
    23   11   12 1
    24   11   33 1
    25   11   34 1
    26   12   35 1
    27   12   36 1
    28   12   37 1
    29   13   21 2
    30   13   14 1
    31   14   19 ar
    32   14   15 ar
    33   15   16 ar
    34   15   38 1
    35   16   17 ar
    36   16   39 1
    37   17   18 ar
    38   17   22 1
    39   18   19 ar
    40   18   40 1
    41   19   20 1
    42   20   21 1
    43   22   41 1
@<TRIPOS>MOLECULE
CHEMBL432371
   69    73     0     0     0
SMALL
USER_CHARGES

@<TRIPOS>ATOM
      1 C1         -0.6280    3.2018   -1.2093 C.3       1 <0>        -0.1447
      2 C2         -0.8426    1.7971   -0.6420 C.3       1 <0>        -0.0574
      3 C3          0.0510    0.8218   -1.3640 C.2       1 <0>        -0.1335
      4 C4         -0.2999    0.0239   -2.4783 C.2       1 <0>        -0.1257
      5 C5          0.8264   -0.7110   -2.8039 C.2       1 <0>         0.0520
      6 O1          1.8045   -0.3794   -1.9384 O.3       1 <0>        -0.1513
      7 C6          1.3493    0.5455   -1.0723 C.2       1 <0>         0.0378
      8 C7          2.1327    1.1577    0.0199 C.ar      1 <0>        -0.0343
      9 C8          1.6056    1.2168    1.3119 C.ar      1 <0>        -0.0748
     10 C9          2.3403    1.7886    2.3284 C.ar      1 <0>        -0.1432
     11 C10         3.6029    2.3055    2.0693 C.ar      1 <0>         0.1225
     12 C11         4.1308    2.2488    0.7861 C.ar      1 <0>        -0.1434
     13 C12         3.4051    1.6740   -0.2351 C.ar      1 <0>        -0.0766
     14 O2          4.3236    2.8687    3.0741 O.3       1 <0>        -0.4978
     15 C13         0.9368   -1.6861   -3.9042 C.ar      1 <0>        -0.0254
     16 C14         2.0439   -1.6602   -4.7570 C.ar      1 <0>        -0.0933
     17 C15         2.1402   -2.5754   -5.7841 C.ar      1 <0>        -0.1175
     18 C16         1.1439   -3.5175   -5.9718 C.ar      1 <0>        -0.1049
     19 C17         0.0448   -3.5492   -5.1314 C.ar      1 <0>        -0.1196
     20 C18        -0.0623   -2.6444   -4.0962 C.ar      1 <0>        -0.0857
     21 C19        -1.6147   -0.0171   -3.1618 C.ar      1 <0>        -0.0226
     22 C20        -2.7349   -0.5092   -2.4929 C.ar      1 <0>        -0.0659
     23 C21        -3.9566   -0.5460   -3.1317 C.ar      1 <0>        -0.1376
     24 C22        -4.0717   -0.0943   -4.4394 C.ar      1 <0>         0.1124
     25 C23        -2.9585    0.3963   -5.1082 C.ar      1 <0>        -0.1976
     26 C24        -1.7351    0.4416   -4.4731 C.ar      1 <0>        -0.0591
     27 O3         -5.2769   -0.1327   -5.0663 O.3       1 <0>        -0.3282
     28 C25        -5.3241    0.3477   -6.4113 C.3       1 <0>         0.0256
     29 C26        -6.7524    0.2262   -6.9463 C.3       1 <0>        -0.0010
     30 N1         -7.6421    1.1001   -6.1700 N.4       1 <0>        -0.3840
     31 C27        -9.0322    0.8706   -6.5818 C.3       1 <0>        -0.0070
     32 C28        -9.9700    1.7190   -5.7203 C.3       1 <0>        -0.1467
     33 C29        -9.6203    3.1991   -5.9001 C.3       1 <0>        -0.1390
     34 C30        -8.1477    3.4131   -5.5386 C.3       1 <0>        -0.1453
     35 C31        -7.2773    2.5020   -6.4069 C.3       1 <0>        -0.0132
     36 H1          0.4134    3.4935   -1.0729 H         1 <0>         0.0570
     37 H2         -0.8700    3.2053   -2.2721 H         1 <0>         0.0521
     38 H3         -1.2743    3.9072   -0.6871 H         1 <0>         0.0592
     39 H4         -0.6006    1.7936    0.4208 H         1 <0>         0.0767
     40 H5         -1.8840    1.5054   -0.7785 H         1 <0>         0.0719
     41 H6          0.6236    0.8154    1.5142 H         1 <0>         0.1333
     42 H7          1.9332    1.8350    3.3277 H         1 <0>         0.1373
     43 H8          5.1130    2.6523    0.5889 H         1 <0>         0.1362
     44 H9          3.8183    1.6263   -1.2318 H         1 <0>         0.1309
     45 H10         4.8915    2.2457    3.5478 H         1 <0>         0.3967
     46 H11         2.8218   -0.9252   -4.6122 H         1 <0>         0.1273
     47 H12         2.9950   -2.5567   -6.4439 H         1 <0>         0.1301
     48 H13         1.2244   -4.2313   -6.7783 H         1 <0>         0.1277
     49 H14        -0.7289   -4.2871   -5.2842 H         1 <0>         0.1279
     50 H15        -0.9184   -2.6732   -3.4384 H         1 <0>         0.1244
     51 H16        -2.6458   -0.8614   -1.4759 H         1 <0>         0.1359
     52 H17        -4.8246   -0.9270   -2.6142 H         1 <0>         0.1344
     53 H18        -3.0515    0.7469   -6.1254 H         1 <0>         0.1276
     54 H19        -0.8705    0.8278   -4.9923 H         1 <0>         0.1283
     55 H20        -5.0149    1.3927   -6.4349 H         1 <0>         0.0860
     56 H21        -4.6519   -0.2443   -7.0323 H         1 <0>         0.1091
     57 H22        -6.7743    0.5244   -7.9945 H         1 <0>         0.1486
     58 H23        -7.0878   -0.8069   -6.8554 H         1 <0>         0.1425
     59 H24        -9.1509    1.1484   -7.6291 H         1 <0>         0.1290
     60 H25        -9.2785   -0.1837   -6.4563 H         1 <0>         0.1310
     61 H26       -11.0014    1.5486   -6.0288 H         1 <0>         0.1130
     62 H27        -9.8522    1.4419   -4.6727 H         1 <0>         0.0880
     63 H28        -9.7869    3.4895   -6.9374 H         1 <0>         0.0820
     64 H29       -10.2479    3.8040   -5.2457 H         1 <0>         0.0947
     65 H30        -7.8765    4.4536   -5.7173 H         1 <0>         0.1122
     66 H31        -7.9921    3.1711   -4.4873 H         1 <0>         0.0880
     67 H32        -6.2282    2.6520   -6.1522 H         1 <0>         0.1274
     68 H33        -7.4335    2.7449   -7.4579 H         1 <0>         0.1300
     69 H34        -7.5453    0.8897   -5.1879 H         1 <0>         0.4294
@<TRIPOS>BOND
     1    1    2 1
     2    1   36 1
     3    1   37 1
     4    1   38 1
     5    2    3 1
     6    2   39 1
     7    2   40 1
     8    3    7 2
     9    3    4 1
    10    4    5 2
    11    4   21 1
    12    5    6 1
    13    5   15 1
    14    6    7 1
    15    7    8 1
    16    8   13 ar
    17    8    9 ar
    18    9   10 ar
    19    9   41 1
    20   10   11 ar
    21   10   42 1
    22   11   12 ar
    23   11   14 1
    24   12   13 ar
    25   12   43 1
    26   13   44 1
    27   14   45 1
    28   15   20 ar
    29   15   16 ar
    30   16   17 ar
    31   16   46 1
    32   17   18 ar
    33   17   47 1
    34   18   19 ar
    35   18   48 1
    36   19   20 ar
    37   19   49 1
    38   20   50 1
    39   21   26 ar
    40   21   22 ar
    41   22   23 ar
    42   22   51 1
    43   23   24 ar
    44   23   52 1
    45   24   25 ar
    46   24   27 1
    47   25   26 ar
    48   25   53 1
    49   26   54 1
    50   27   28 1
    51   28   29 1
    52   28   55 1
    53   28   56 1
    54   29   30 1
    55   29   57 1
    56   29   58 1
    57   30   35 1
    58   30   31 1
    59   30   69 1
    60   31   32 1
    61   31   59 1
    62   31   60 1
    63   32   33 1
    64   32   61 1
    65   32   62 1
    66   33   34 1
    67   33   63 1
    68   33   64 1
    69   34   35 1
    70   34   65 1
    71   34   66 1
    72   35   67 1
    73   35   68 1
@<TRIPOS>MOLECULE
CHEMBL145576
   46    50     0     0     0
SMALL
USER_CHARGES

@<TRIPOS>ATOM
      1 C1         -0.0184    1.5028    0.0103 C.3       1 <0>        -0.1066
      2 C2          0.0021   -0.0041    0.0020 C.2       1 <0>        -0.0697
      3 C3         -1.0926   -0.7818    0.0030 C.2       1 <0>        -0.0733
      4 C4         -0.6328   -2.2101   -0.0077 C.3       1 <0>         0.0179
      5 C5         -1.1811   -2.9925    1.1918 C.3       1 <0>        -0.0596
      6 C6         -2.4333   -3.6730    0.6760 C.ar      1 <0>        -0.0923
      7 C7         -3.4860   -4.2538    1.3626 C.ar      1 <0>        -0.1049
      8 C8         -4.5375   -4.8223    0.6706 C.ar      1 <0>        -0.1176
      9 C9         -4.5396   -4.8125   -0.7119 C.ar      1 <0>        -0.1170
     10 C10        -3.4903   -4.2342   -1.3988 C.ar      1 <0>        -0.1040
     11 C11        -2.4357   -3.6630   -0.7069 C.ar      1 <0>        -0.0900
     12 C12        -1.1858   -2.9744   -1.2172 C.3       1 <0>        -0.0574
     13 C13         0.8670   -2.1786   -0.0125 C.ar      1 <0>        -0.0925
     14 C14         1.2246   -0.8236   -0.0146 C.ar      1 <0>        -0.0460
     15 C15         2.5781   -0.4754   -0.0281 C.ar      1 <0>        -0.1228
     16 C16         3.5453   -1.4651   -0.0414 C.ar      1 <0>         0.1090
     17 C17         3.1758   -2.8034   -0.0412 C.ar      1 <0>        -0.1383
     18 C18         1.8370   -3.1540   -0.0197 C.ar      1 <0>        -0.0780
     19 O1          4.8612   -1.1258   -0.0552 O.3       1 <0>        -0.4977
     20 C19        -2.4908   -0.3172    0.0134 C.ar      1 <0>        -0.0310
     21 C20        -3.3096   -0.5826    1.1148 C.ar      1 <0>        -0.0799
     22 C21        -4.6165   -0.1461    1.1200 C.ar      1 <0>        -0.1418
     23 C22        -5.1208    0.5562    0.0329 C.ar      1 <0>         0.1089
     24 C23        -4.3110    0.8224   -1.0638 C.ar      1 <0>        -0.1436
     25 C24        -3.0010    0.3954   -1.0755 C.ar      1 <0>        -0.0867
     26 O2         -6.4103    0.9838    0.0421 O.3       1 <0>        -0.4997
     27 H1          1.0042    1.8801    0.0026 H         1 <0>         0.0660
     28 H2         -0.5455    1.8639   -0.8728 H         1 <0>         0.0726
     29 H3         -0.5286    1.8543    0.9071 H         1 <0>         0.0724
     30 H4         -0.4555   -3.7352    1.5234 H         1 <0>         0.0873
     31 H5         -1.4279   -2.3124    2.0070 H         1 <0>         0.0805
     32 H6         -3.4852   -4.2621    2.4426 H         1 <0>         0.1185
     33 H7         -5.3573   -5.2744    1.2091 H         1 <0>         0.1229
     34 H8         -5.3610   -5.2571   -1.2542 H         1 <0>         0.1228
     35 H9         -3.4923   -4.2274   -2.4788 H         1 <0>         0.1184
     36 H10        -1.4360   -2.2819   -2.0209 H         1 <0>         0.0803
     37 H11        -0.4613   -3.7117   -1.5630 H         1 <0>         0.0868
     38 H12         2.8688    0.5647   -0.0286 H         1 <0>         0.1295
     39 H13         3.9343   -3.5721   -0.0510 H         1 <0>         0.1340
     40 H14         1.5530   -4.1960   -0.0210 H         1 <0>         0.1287
     41 H15         5.2519   -1.0299    0.8242 H         1 <0>         0.3922
     42 H16        -2.9185   -1.1292    1.9602 H         1 <0>         0.1258
     43 H17        -5.2499   -0.3507    1.9705 H         1 <0>         0.1288
     44 H18        -4.7075    1.3689   -1.9068 H         1 <0>         0.1297
     45 H19        -2.3707    0.6070   -1.9266 H         1 <0>         0.1262
     46 H20        -6.5291    1.8671    0.4174 H         1 <0>         0.3911
@<TRIPOS>BOND
     1    1    2 1
     2    1   27 1
     3    1   28 1
     4    1   29 1
     5    2   14 1
     6    2    3 2
     7    3    4 1
     8    3   20 1
     9    4   12 1
    10    4    5 1
    11    4   13 1
    12    5    6 1
    13    5   30 1
    14    5   31 1
    15    6   11 ar
    16    6    7 ar
    17    7    8 ar
    18    7   32 1
    19    8    9 ar
    20    8   33 1
    21    9   10 ar
    22    9   34 1
    23   10   11 ar
    24   10   35 1
    25   11   12 1
    26   12   36 1
    27   12   37 1
    28   13   18 ar
    29   13   14 ar
    30   14   15 ar
    31   15   16 ar
    32   15   38 1
    33   16   17 ar
    34   16   19 1
    35   17   18 ar
    36   17   39 1
    37   18   40 1
    38   19   41 1
    39   20   25 ar
    40   20   21 ar
    41   21   22 ar
    42   21   42 1
    43   22   23 ar
    44   22   43 1
    45   23   24 ar
    46   23   26 1
    47   24   25 ar
    48   24   44 1
    49   25   45 1
    50   26   46 1
@<TRIPOS>MOLECULE
CHEMBL28
   30    32     0     0     0
SMALL
USER_CHARGES

@<TRIPOS>ATOM
      1 C1         -0.0169    1.3935    0.0097 C.ar      1 <0>        -0.0604
      2 C2          1.1676    2.0963    0.0022 C.ar      1 <0>        -0.1497
      3 C3          2.3803    1.4179   -0.0135 C.ar      1 <0>         0.1360
      4 C4          2.4038    0.0284   -0.0212 C.ar      1 <0>        -0.1474
      5 C5          1.2241   -0.6823   -0.0133 C.ar      1 <0>        -0.0612
      6 C6          0.0021   -0.0041    0.0020 C.ar      1 <0>        -0.0853
      7 C7         -1.2639   -0.7610    0.0105 C.2       1 <0>         0.2092
      8 C8         -1.2134   -2.1203    0.0083 C.2       1 <0>        -0.3116
      9 C9         -2.4177   -2.8631    0.0169 C.2       1 <0>         0.4226
     10 O1         -2.4099   -4.0836    0.0156 O.2       1 <0>        -0.4538
     11 C10        -3.6809   -2.1061    0.0279 C.ar      1 <0>        -0.2659
     12 C11        -4.9199   -2.7591    0.0374 C.ar      1 <0>         0.2192
     13 C12        -6.0832   -2.0121    0.0480 C.ar      1 <0>        -0.2049
     14 C13        -6.0212   -0.6227    0.0493 C.ar      1 <0>         0.1922
     15 C14        -4.7984    0.0300    0.0400 C.ar      1 <0>        -0.1830
     16 C15        -3.6212   -0.7020    0.0293 C.ar      1 <0>         0.1830
     17 O2         -2.4220   -0.0821    0.0257 O.3       1 <0>        -0.2182
     18 O3         -7.1695    0.1013    0.0593 O.3       1 <0>        -0.4872
     19 O4         -4.9782   -4.1150    0.0356 O.3       1 <0>        -0.4722
     20 O5          3.5455    2.1145   -0.0218 O.3       1 <0>        -0.4965
     21 H1         -0.9589    1.9215    0.0260 H         1 <0>         0.1404
     22 H2          1.1538    3.1762    0.0081 H         1 <0>         0.1393
     23 H3          3.3485   -0.4949   -0.0338 H         1 <0>         0.1414
     24 H4          1.2432   -1.7622   -0.0196 H         1 <0>         0.1415
     25 H5         -0.2608   -2.6290   -0.0002 H         1 <0>         0.1637
     26 H6         -7.0423   -2.5086    0.0550 H         1 <0>         0.1502
     27 H7         -4.7627    1.1094    0.0411 H         1 <0>         0.1534
     28 H8         -7.4952    0.3100    0.9456 H         1 <0>         0.4037
     29 H9         -4.9875   -4.5094    0.9185 H         1 <0>         0.4031
     30 H10         3.8920    2.3119    0.8591 H         1 <0>         0.3984
@<TRIPOS>BOND
     1    1    6 ar
     2    1    2 ar
     3    1   21 1
     4    2    3 ar
     5    2   22 1
     6    3    4 ar
     7    3   20 1
     8    4    5 ar
     9    4   23 1
    10    5    6 ar
    11    5   24 1
    12    6    7 1
    13    7   17 1
    14    7    8 2
    15    8    9 1
    16    8   25 1
    17    9   10 2
    18    9   11 1
    19   11   16 ar
    20   11   12 ar
    21   12   13 ar
    22   12   19 1
    23   13   14 ar
    24   13   26 1
    25   14   15 ar
    26   14   18 1
    27   15   16 ar
    28   15   27 1
    29   16   17 1
    30   18   28 1
    31   19   29 1
    32   20   30 1
@<TRIPOS>MOLECULE
CHEMBL185480
   69    74     0     0     0
SMALL
USER_CHARGES

@<TRIPOS>ATOM
      1 C1          0.3111   -0.1273   -0.8808 C.ar      1 <0>        -0.0873
      2 C2          1.4363    0.6645   -1.0046 C.ar      1 <0>        -0.1389
      3 C3          1.4208    1.9686   -0.5316 C.ar      1 <0>         0.1158
      4 C4          0.2747    2.4742    0.0646 C.ar      1 <0>        -0.1461
      5 C5         -0.8479    1.6784    0.1859 C.ar      1 <0>        -0.0836
      6 C6         -0.8299    0.3790   -0.2862 C.ar      1 <0>        -0.0899
      7 C7         -2.0562   -0.4868   -0.1529 C.3       1 <0>        -0.0640
      8 H1         -2.9261    0.1321    0.0669 H         1 <0>         0.1382
      9 C8         -1.8502   -1.5194    0.9680 C.3       1 <0>         0.1496
     10 H2         -2.6851   -2.2201    0.9761 H         1 <0>         0.0962
     11 O1         -0.6410   -2.2245    0.7322 O.3       1 <0>        -0.3049
     12 C9         -0.4353   -2.9367   -0.4005 C.ar      1 <0>         0.1212
     13 C10         0.5007   -3.9672   -0.3531 C.ar      1 <0>        -0.1140
     14 C11         0.7719   -4.7233   -1.4748 C.ar      1 <0>        -0.1061
     15 C12         0.1131   -4.4642   -2.6678 C.ar      1 <0>         0.0985
     16 C13        -0.8244   -3.4458   -2.7254 C.ar      1 <0>        -0.0901
     17 C14        -1.1028   -2.6891   -1.5948 C.ar      1 <0>        -0.1477
     18 S1         -2.3295   -1.4182   -1.6931 S.3       1 <0>        -0.0843
     19 O2          0.3864   -5.2053   -3.7746 O.3       1 <0>        -0.4915
     20 C15        -1.7725   -0.8124    2.2966 C.ar      1 <0>        -0.1046
     21 C16        -0.5951   -0.2001    2.6847 C.ar      1 <0>        -0.0347
     22 C17        -0.5212    0.4482    3.9023 C.ar      1 <0>        -0.1414
     23 C18        -1.6297    0.4850    4.7357 C.ar      1 <0>         0.1245
     24 C19        -2.8100   -0.1297    4.3437 C.ar      1 <0>        -0.2037
     25 C20        -2.8804   -0.7723    3.1228 C.ar      1 <0>        -0.0589
     26 O3         -1.5594    1.1218    5.9342 O.3       1 <0>        -0.3268
     27 C21        -2.7393    1.1196    6.7403 C.3       1 <0>         0.0249
     28 C22        -2.4698    1.8785    8.0411 C.3       1 <0>        -0.0001
     29 N1         -2.1866    3.2874    7.7364 N.4       1 <0>        -0.3863
     30 C23        -1.7752    3.9786    8.9641 C.3       1 <0>         0.0007
     31 C24        -1.3967    5.4251    8.6369 C.3       1 <0>        -0.1487
     32 C25        -2.6051    6.1352    8.0224 C.3       1 <0>         0.2479
     33 C26        -3.0790    5.3634    6.7887 C.3       1 <0>        -0.1647
     34 C27        -3.3922    3.9194    7.1874 C.3       1 <0>        -0.0054
     35 O4         -2.2345    7.4693    7.6406 O.3       1 <0>        -0.3573
     36 C28        -3.4107    8.2706    7.9084 C.3       1 <0>         0.0135
     37 C29        -3.9636    7.6000    9.1909 C.3       1 <0>         0.0216
     38 O5         -3.6645    6.2044    8.9844 O.3       1 <0>        -0.3795
     39 O6          2.5267    2.7494   -0.6518 O.3       1 <0>        -0.4998
     40 H3          0.3211   -1.1411   -1.2528 H         1 <0>         0.1322
     41 H4          2.3274    0.2685   -1.4688 H         1 <0>         0.1314
     42 H5          0.2603    3.4891    0.4339 H         1 <0>         0.1294
     43 H6         -1.7404    2.0716    0.6500 H         1 <0>         0.1235
     44 H7          1.0195   -4.1762    0.5708 H         1 <0>         0.1413
     45 H8          1.4998   -5.5194   -1.4239 H         1 <0>         0.1429
     46 H9         -1.3397   -3.2397   -3.6519 H         1 <0>         0.1404
     47 H10        -0.1690   -5.9914   -3.8686 H         1 <0>         0.3946
     48 H11         0.2675   -0.2291    2.0356 H         1 <0>         0.1388
     49 H12         0.3989    0.9257    4.2054 H         1 <0>         0.1354
     50 H13        -3.6743   -0.1025    4.9907 H         1 <0>         0.1316
     51 H14        -3.8003   -1.2473    2.8153 H         1 <0>         0.1346
     52 H15        -3.5507    1.6049    6.1979 H         1 <0>         0.0869
     53 H16        -3.0200    0.0919    6.9707 H         1 <0>         0.1112
     54 H17        -3.3457    1.8154    8.6868 H         1 <0>         0.1512
     55 H18        -1.6119    1.4370    8.5483 H         1 <0>         0.1448
     56 H19        -2.5989    3.9716    9.6780 H         1 <0>         0.1382
     57 H20        -0.9154    3.4677    9.3975 H         1 <0>         0.1391
     58 H21        -1.0983    5.9389    9.5507 H         1 <0>         0.1244
     59 H22        -0.5697    5.4333    7.9270 H         1 <0>         0.1071
     60 H23        -3.9771    5.8335    6.3880 H         1 <0>         0.1189
     61 H24        -2.2949    5.3702    6.0316 H         1 <0>         0.1074
     62 H25        -3.7253    3.3647    6.3102 H         1 <0>         0.1326
     63 H26        -4.1801    3.9135    7.9406 H         1 <0>         0.1388
     64 H27        -3.1404    9.3096    8.0969 H         1 <0>         0.1222
     65 H28        -4.1271    8.1977    7.0901 H         1 <0>         0.0844
     66 H29        -3.4498    7.9774   10.0750 H         1 <0>         0.0876
     67 H30        -5.0393    7.7553    9.2736 H         1 <0>         0.1120
     68 H31         2.5620    3.2575   -1.4738 H         1 <0>         0.3954
     69 H32        -1.4418    3.3404    7.0577 H         1 <0>         0.4295
@<TRIPOS>BOND
     1    1    6 ar
     2    1    2 ar
     3    1   40 1
     4    2    3 ar
     5    2   41 1
     6    3    4 ar
     7    3   39 1
     8    4    5 ar
     9    4   42 1
    10    5    6 ar
    11    5   43 1
    12    6    7 1
    13    7    8 1
    14    7   18 1
    15    7    9 1
    16    9   10 1
    17    9   11 1
    18    9   20 1
    19   11   12 1
    20   12   17 ar
    21   12   13 ar
    22   13   14 ar
    23   13   44 1
    24   14   15 ar
    25   14   45 1
    26   15   16 ar
    27   15   19 1
    28   16   17 ar
    29   16   46 1
    30   17   18 1
    31   19   47 1
    32   20   25 ar
    33   20   21 ar
    34   21   22 ar
    35   21   48 1
    36   22   23 ar
    37   22   49 1
    38   23   24 ar
    39   23   26 1
    40   24   25 ar
    41   24   50 1
    42   25   51 1
    43   26   27 1
    44   27   28 1
    45   27   52 1
    46   27   53 1
    47   28   29 1
    48   28   54 1
    49   28   55 1
    50   29   34 1
    51   29   30 1
    52   29   69 1
    53   30   31 1
    54   30   56 1
    55   30   57 1
    56   31   32 1
    57   31   58 1
    58   31   59 1
    59   32   38 1
    60   32   33 1
    61   32   35 1
    62   33   34 1
    63   33   60 1
    64   33   61 1
    65   34   62 1
    66   34   63 1
    67   35   36 1
    68   36   37 1
    69   36   64 1
    70   36   65 1
    71   37   38 1
    72   37   66 1
    73   37   67 1
    74   39   68 1
@<TRIPOS>MOLECULE
CHEMBL185480__1
   68    73     0     0     0
SMALL
USER_CHARGES

@<TRIPOS>ATOM
      1 C1          1.0091   -0.1754   -0.6172 C.ar      1 <0>        -0.0897
      2 C2          2.1203    0.6437   -0.6705 C.ar      1 <0>        -0.1414
      3 C3          2.0362    1.9548   -0.2249 C.ar      1 <0>         0.1129
      4 C4          0.8358    2.4400    0.2733 C.ar      1 <0>        -0.1429
      5 C5         -0.2725    1.6169    0.3244 C.ar      1 <0>        -0.0791
      6 C6         -0.1861    0.3106   -0.1202 C.ar      1 <0>        -0.0866
      7 C7         -1.3968   -0.5849   -0.0637 C.3       1 <0>        -0.0613
      8 H1         -2.2957    0.0141    0.0825 H         1 <0>         0.1391
      9 C8         -1.2480   -1.5967    1.0849 C.3       1 <0>         0.1566
     10 H2         -2.0635   -2.3187    1.0427 H         1 <0>         0.0927
     11 O1         -0.0076   -2.2732    0.9488 O.3       1 <0>        -0.3030
     12 C9          0.2985   -2.9950   -0.1548 C.ar      1 <0>         0.1268
     13 C10         1.2539   -4.0000   -0.0234 C.ar      1 <0>        -0.1165
     14 C11         1.6254   -4.7638   -1.1105 C.ar      1 <0>        -0.1071
     15 C12         1.0498   -4.5379   -2.3523 C.ar      1 <0>         0.0914
     16 C13         0.0939   -3.5451   -2.4938 C.ar      1 <0>        -0.0900
     17 C14        -0.2855   -2.7809   -1.3983 C.ar      1 <0>        -0.1472
     18 S1         -1.5330   -1.5436   -1.6053 S.3       1 <0>        -0.0935
     19 O2          1.4220   -5.2865   -3.4247 O.3       1 <0>        -0.4927
     20 C15        -1.2857   -0.8702    2.4046 C.ar      1 <0>        -0.1306
     21 C16        -0.1557   -0.2223    2.8684 C.ar      1 <0>        -0.0360
     22 C17        -0.1875    0.4440    4.0781 C.ar      1 <0>        -0.1531
     23 C18        -1.3548    0.4631    4.8276 C.ar      1 <0>         0.1482
     24 C19        -2.4874   -0.1873    4.3599 C.ar      1 <0>        -0.2140
     25 C20        -2.4519   -0.8478    3.1471 C.ar      1 <0>        -0.0586
     26 O3         -1.3885    1.1176    6.0181 O.3       1 <0>        -0.2934
     27 C21        -2.6241    1.0955    6.7358 C.3       1 <0>         0.0652
     28 C22        -2.4698    1.8785    8.0411 C.3       1 <0>         0.0555
     29 N1         -2.1866    3.2874    7.7364 N.3       1 <0>        -0.5326
     30 C23        -1.5733    3.9618    8.8876 C.3       1 <0>         0.0634
     31 C24        -1.1557    5.3789    8.4870 C.3       1 <0>        -0.1159
     32 C25        -2.3870    6.1512    8.0081 C.3       1 <0>         0.2563
     33 C26        -3.0415    5.4028    6.8448 C.3       1 <0>        -0.1310
     34 C27        -3.4013    3.9850    7.2958 C.3       1 <0>         0.0593
     35 O4         -1.9916    7.4618    7.5732 O.3       1 <0>        -0.3695
     36 C28        -3.0843    8.3270    7.9664 C.3       1 <0>         0.0146
     37 C29        -3.5208    7.6925    9.3106 C.3       1 <0>         0.0200
     38 O5         -3.3230    6.2818    9.0850 O.3       1 <0>        -0.3773
     39 O6          3.1281    2.7623   -0.2759 O.3       1 <0>        -0.4989
     40 H3          1.0729   -1.1948   -0.9681 H         1 <0>         0.1301
     41 H4          3.0538    0.2635   -1.0584 H         1 <0>         0.1288
     42 H5          0.7679    3.4602    0.6211 H         1 <0>         0.1309
     43 H6         -1.2073    1.9942    0.7121 H         1 <0>         0.1262
     44 H7          1.7085   -4.1830    0.9390 H         1 <0>         0.1412
     45 H8          2.3673   -5.5400   -0.9945 H         1 <0>         0.1405
     46 H9         -0.3569   -3.3649   -3.4586 H         1 <0>         0.1384
     47 H10         0.8948   -6.0879   -3.5470 H         1 <0>         0.3915
     48 H11         0.7528   -0.2375    2.2845 H         1 <0>         0.1308
     49 H12         0.6956    0.9493    4.4402 H         1 <0>         0.1325
     50 H13        -3.3973   -0.1739    4.9415 H         1 <0>         0.1296
     51 H14        -3.3346   -1.3506    2.7804 H         1 <0>         0.1266
     52 H15        -3.4053    1.5522    6.1283 H         1 <0>         0.0629
     53 H16        -2.8952    0.0640    6.9608 H         1 <0>         0.0669
     54 H17        -3.3924    1.8098    8.6173 H         1 <0>         0.0613
     55 H18        -1.6472    1.4598    8.6210 H         1 <0>         0.0880
     56 H19        -2.2931    4.0126    9.7046 H         1 <0>         0.0436
     57 H20        -0.6957    3.4023    9.2112 H         1 <0>         0.0828
     58 H21        -0.7194    5.8867    9.3472 H         1 <0>         0.0784
     59 H22        -0.4220    5.3284    7.6825 H         1 <0>         0.0904
     60 H23        -3.9461    5.9275    6.5374 H         1 <0>         0.0729
     61 H24        -2.3462    5.3529    6.0069 H         1 <0>         0.0903
     62 H25        -3.8503    3.4422    6.4639 H         1 <0>         0.0767
     63 H26        -4.1109    4.0355    8.1216 H         1 <0>         0.0439
     64 H27        -2.7386    9.3504    8.1121 H         1 <0>         0.1100
     65 H28        -3.8931    8.2902    7.2366 H         1 <0>         0.0758
     66 H29        -2.8888    8.0445   10.1259 H         1 <0>         0.0769
     67 H30        -4.5698    7.9065    9.5149 H         1 <0>         0.0999
     68 H31         3.2131    3.2571   -1.1024 H         1 <0>         0.3919
@<TRIPOS>BOND
     1    1    6 ar
     2    1    2 ar
     3    1   40 1
     4    2    3 ar
     5    2   41 1
     6    3    4 ar
     7    3   39 1
     8    4    5 ar
     9    4   42 1
    10    5    6 ar
    11    5   43 1
    12    6    7 1
    13    7    8 1
    14    7   18 1
    15    7    9 1
    16    9   10 1
    17    9   11 1
    18    9   20 1
    19   11   12 1
    20   12   17 ar
    21   12   13 ar
    22   13   14 ar
    23   13   44 1
    24   14   15 ar
    25   14   45 1
    26   15   16 ar
    27   15   19 1
    28   16   17 ar
    29   16   46 1
    30   17   18 1
    31   19   47 1
    32   20   25 ar
    33   20   21 ar
    34   21   22 ar
    35   21   48 1
    36   22   23 ar
    37   22   49 1
    38   23   24 ar
    39   23   26 1
    40   24   25 ar
    41   24   50 1
    42   25   51 1
    43   26   27 1
    44   27   28 1
    45   27   52 1
    46   27   53 1
    47   28   29 1
    48   28   54 1
    49   28   55 1
    50   29   34 1
    51   29   30 1
    52   30   31 1
    53   30   56 1
    54   30   57 1
    55   31   32 1
    56   31   58 1
    57   31   59 1
    58   32   38 1
    59   32   33 1
    60   32   35 1
    61   33   34 1
    62   33   60 1
    63   33   61 1
    64   34   62 1
    65   34   63 1
    66   35   36 1
    67   36   37 1
    68   36   64 1
    69   36   65 1
    70   37   38 1
    71   37   66 1
    72   37   67 1
    73   39   68 1
@<TRIPOS>MOLECULE
CHEMBL51577
   72    76     0     0     0
SMALL
USER_CHARGES

@<TRIPOS>ATOM
      1 C1         -0.0043    1.4869   -0.0122 C.3       1 <0>        -0.1495
      2 C2          0.0272   -0.0423    0.0256 C.3       1 <0>        -0.0461
      3 C3         -1.3874   -0.6005    0.1094 C.3       1 <0>        -0.0789
      4 C4         -2.1173    0.2231    1.1777 C.3       1 <0>        -0.0038
      5 C5         -1.2528    0.5164    2.3679 C.2       1 <0>        -0.0415
      6 C6         -1.7803    1.2026    3.3952 C.2       1 <0>        -0.1335
      7 C7         -3.2310    1.6197    3.3685 C.3       1 <0>        -0.0952
      8 C8         -3.8469    1.3096    4.7374 C.3       1 <0>        -0.1586
      9 C9         -2.9753    1.8720    5.8270 C.2       1 <0>         0.3866
     10 O1         -3.4956    2.2998    6.8378 O.2       1 <0>        -0.4765
     11 C10        -1.5782    1.9155    5.7081 C.2       1 <0>        -0.2574
     12 C11        -0.9624    1.5700    4.5474 C.2       1 <0>         0.0317
     13 C12         0.5419    1.5978    4.4646 C.3       1 <0>        -0.0986
     14 C13         0.9962    1.3084    3.0277 C.3       1 <0>        -0.1114
     15 C14         0.1922    0.1285    2.5023 C.3       1 <0>        -0.0435
     16 C15         0.7568   -0.5393    1.2996 C.3       1 <0>        -0.0769
     17 C16         2.2235   -0.2563    0.9647 C.3       1 <0>        -0.1152
     18 C17         2.3277   -0.6762   -0.5266 C.3       1 <0>        -0.1515
     19 C18         0.8957   -0.5859   -1.1079 C.3       1 <0>         0.1468
     20 C19         0.8685    0.3715   -2.3011 C.3       1 <0>        -0.1411
     21 C20         1.7428   -0.1890   -3.4247 C.3       1 <0>        -0.1271
     22 C21         1.7155    0.7684   -4.6179 C.3       1 <0>         0.0760
     23 O2          2.5321    0.2449   -5.6673 O.3       1 <0>        -0.5764
     24 O3          0.4398   -1.8815   -1.5022 O.3       1 <0>        -0.5515
     25 C22        -3.3334   -0.5405    1.6350 C.ar      1 <0>        -0.1269
     26 C23        -4.5751   -0.2421    1.1044 C.ar      1 <0>        -0.0716
     27 C24        -5.6917   -0.9399    1.5213 C.ar      1 <0>        -0.1939
     28 C25        -5.5664   -1.9423    2.4747 C.ar      1 <0>         0.2149
     29 C26        -4.3176   -2.2395    3.0056 C.ar      1 <0>        -0.1959
     30 C27        -3.2043   -1.5416    2.5801 C.ar      1 <0>        -0.0583
     31 N1         -6.6936   -2.6497    2.8989 N.pl3     1 <0>        -0.6386
     32 C28        -7.9853   -2.4308    2.2433 C.3       1 <0>         0.0924
     33 C29        -6.5842   -3.6105    3.9994 C.3       1 <0>         0.0888
     34 H1          1.0156    1.8713   -0.0158 H         1 <0>         0.0587
     35 H2         -0.5204    1.8175   -0.9136 H         1 <0>         0.0592
     36 H3         -0.5306    1.8613    0.8658 H         1 <0>         0.0721
     37 H4         -1.8890   -0.4934   -0.8524 H         1 <0>         0.0688
     38 H5         -1.3582   -1.6501    0.4020 H         1 <0>         0.0757
     39 H6         -2.4408    1.1656    0.7361 H         1 <0>         0.0896
     40 H7         -3.3021    2.6887    3.1673 H         1 <0>         0.0725
     41 H8         -3.7588    1.0637    2.5937 H         1 <0>         0.1112
     42 H9         -4.8385    1.7581    4.7986 H         1 <0>         0.0892
     43 H10        -3.9303    0.2298    4.8610 H         1 <0>         0.0969
     44 H11        -0.9826    2.2291    6.5527 H         1 <0>         0.1311
     45 H12         0.9024    2.5811    4.7666 H         1 <0>         0.0894
     46 H13         0.9547    0.8424    5.1333 H         1 <0>         0.0889
     47 H14         0.8170    2.1830    2.4024 H         1 <0>         0.0732
     48 H15         2.0580    1.0620    3.0206 H         1 <0>         0.0811
     49 H16         0.2232   -0.6247    3.2895 H         1 <0>         0.0711
     50 H17         0.6269   -1.6183    1.3833 H         1 <0>         0.0785
     51 H18         2.4486    0.8036    1.0834 H         1 <0>         0.0730
     52 H19         2.8844   -0.8635    1.5833 H         1 <0>         0.0677
     53 H20         2.9918    0.0032   -1.0609 H         1 <0>         0.0714
     54 H21         2.6982   -1.6985   -0.6022 H         1 <0>         0.0729
     55 H22        -0.1560    0.4791   -2.6572 H         1 <0>         0.0730
     56 H23         1.2508    1.3451   -1.9945 H         1 <0>         0.0789
     57 H24         2.7673   -0.2966   -3.0686 H         1 <0>         0.0723
     58 H25         1.3605   -1.1626   -3.7313 H         1 <0>         0.0699
     59 H26         0.6910    0.8760   -4.9740 H         1 <0>         0.0455
     60 H27         2.0978    1.7420   -4.3113 H         1 <0>         0.0451
     61 H28         2.5617    0.8015   -6.4575 H         1 <0>         0.3816
     62 H29         0.9533   -2.2778   -2.2193 H         1 <0>         0.3737
     63 H30        -4.6719    0.5376    0.3635 H         1 <0>         0.1209
     64 H31        -6.6612   -0.7061    1.1068 H         1 <0>         0.1221
     65 H32        -4.2168   -3.0180    3.7473 H         1 <0>         0.1214
     66 H33        -2.2325   -1.7751    2.9893 H         1 <0>         0.1167
     67 H34        -8.0906   -3.1228    1.4077 H         1 <0>         0.0482
     68 H35        -8.7895   -2.6005    2.9592 H         1 <0>         0.0660
     69 H36        -8.0369   -1.4061    1.8751 H         1 <0>         0.0691
     70 H37        -5.5792   -3.5689    4.4194 H         1 <0>         0.0771
     71 H38        -7.3116   -3.3620    4.7723 H         1 <0>         0.0564
     72 H39        -6.7804   -4.6153    3.6253 H         1 <0>         0.0519
@<TRIPOS>BOND
     1    1    2 1
     2    1   34 1
     3    1   35 1
     4    1   36 1
     5    2   16 1
     6    2   19 1
     7    2    3 1
     8    3    4 1
     9    3   37 1
    10    3   38 1
    11    4    5 1
    12    4   25 1
    13    4   39 1
    14    5   15 1
    15    5    6 2
    16    6   12 1
    17    6    7 1
    18    7    8 1
    19    7   40 1
    20    7   41 1
    21    8    9 1
    22    8   42 1
    23    8   43 1
    24    9   10 2
    25    9   11 1
    26   11   12 2
    27   11   44 1
    28   12   13 1
    29   13   14 1
    30   13   45 1
    31   13   46 1
    32   14   15 1
    33   14   47 1
    34   14   48 1
    35   15   16 1
    36   15   49 1
    37   16   17 1
    38   16   50 1
    39   17   18 1
    40   17   51 1
    41   17   52 1
    42   18   19 1
    43   18   53 1
    44   18   54 1
    45   19   20 1
    46   19   24 1
    47   20   21 1
    48   20   55 1
    49   20   56 1
    50   21   22 1
    51   21   57 1
    52   21   58 1
    53   22   23 1
    54   22   59 1
    55   22   60 1
    56   23   61 1
    57   24   62 1
    58   25   30 ar
    59   25   26 ar
    60   26   27 ar
    61   26   63 1
    62   27   28 ar
    63   27   64 1
    64   28   29 ar
    65   28   31 1
    66   29   30 ar
    67   29   65 1
    68   30   66 1
    69   31   32 1
    70   31   33 1
    71   32   67 1
    72   32   68 1
    73   32   69 1
    74   33   70 1
    75   33   71 1
    76   33   72 1
@<TRIPOS>MOLECULE
CHEMBL51577__1
   72    76     0     0     0
SMALL
USER_CHARGES

@<TRIPOS>ATOM
      1 C1         -0.0116    1.5103    0.0073 C.3       1 <0>        -0.1470
      2 C2          0.0081   -0.0195    0.0158 C.3       1 <0>        -0.0393
      3 C3         -1.4175   -0.5496   -0.0575 C.3       1 <0>        -0.0873
      4 C4         -2.1820   -0.1480    1.2100 C.3       1 <0>        -0.0116
      5 C5         -1.4577   -0.7767    2.3872 C.2       1 <0>        -0.0505
      6 C6         -2.0163   -0.7196    3.5885 C.2       1 <0>        -0.1236
      7 C7         -3.3363   -0.0179    3.8081 C.3       1 <0>        -0.0738
      8 C8         -3.2447    0.8023    5.0986 C.3       1 <0>        -0.1666
      9 C9         -2.7278   -0.0569    6.2206 C.2       1 <0>         0.3881
     10 O1         -3.1578    0.1096    7.3444 O.2       1 <0>        -0.4746
     11 C10        -1.7575   -1.0489    5.9942 C.2       1 <0>        -0.2530
     12 C11        -1.3739   -1.3596    4.7386 C.2       1 <0>         0.0288
     13 C12        -0.2926   -2.3740    4.4588 C.3       1 <0>        -0.0958
     14 C13         0.6260   -1.8005    3.3817 C.3       1 <0>        -0.1105
     15 C14        -0.1362   -1.4367    2.1163 C.3       1 <0>        -0.0444
     16 C15         0.7410   -0.5168    1.2633 C.3       1 <0>        -0.0706
     17 C16         1.9737   -1.3052    0.7704 C.3       1 <0>        -0.1156
     18 C17         2.2344   -0.7510   -0.6525 C.3       1 <0>        -0.1501
     19 C18         0.8024   -0.5341   -1.2031 C.3       1 <0>         0.1412
     20 C19         0.8096    0.5123   -2.3193 C.3       1 <0>        -0.1409
     21 C20         1.6023   -0.0218   -3.5139 C.3       1 <0>        -0.1258
     22 C21         1.6096    1.0245   -4.6301 C.3       1 <0>         0.0759
     23 O2          2.3499    0.5257   -5.7459 O.3       1 <0>        -0.5764
     24 O3          0.2546   -1.7670   -1.6739 O.3       1 <0>        -0.5476
     25 C22        -3.5962   -0.6643    1.1420 C.ar      1 <0>        -0.1271
     26 C23        -3.8302   -2.0234    1.0397 C.ar      1 <0>        -0.0551
     27 C24        -5.1249   -2.4999    0.9772 C.ar      1 <0>        -0.1949
     28 C25        -6.1927   -1.6122    1.0171 C.ar      1 <0>         0.2146
     29 C26        -5.9540   -0.2477    1.1199 C.ar      1 <0>        -0.1981
     30 C27        -4.6569    0.2217    1.1877 C.ar      1 <0>        -0.0674
     31 N1         -7.5034   -2.0907    0.9536 N.pl3     1 <0>        -0.6393
     32 C28        -7.7526   -3.5152    0.7191 C.3       1 <0>         0.0937
     33 C29        -8.6290   -1.1681    1.1215 C.3       1 <0>         0.0886
     34 H1          1.0113    1.8868    0.0004 H         1 <0>         0.0577
     35 H2         -0.5342    1.8620   -0.8823 H         1 <0>         0.0617
     36 H3         -0.5259    1.8720    0.8977 H         1 <0>         0.0615
     37 H4         -1.9165   -0.1293   -0.9307 H         1 <0>         0.0651
     38 H5         -1.3969   -1.6362   -0.1399 H         1 <0>         0.0820
     39 H6         -2.1863    0.9371    1.3131 H         1 <0>         0.0906
     40 H7         -3.5429    0.6445    2.9674 H         1 <0>         0.0943
     41 H8         -4.1326   -0.7565    3.8997 H         1 <0>         0.0771
     42 H9         -2.5678    1.6429    4.9455 H         1 <0>         0.0967
     43 H10        -4.2338    1.1796    5.3582 H         1 <0>         0.0918
     44 H11        -1.3151   -1.5665    6.8326 H         1 <0>         0.1327
     45 H12         0.2788   -2.5634    5.3675 H         1 <0>         0.0831
     46 H13        -0.7409   -3.3022    4.1046 H         1 <0>         0.0879
     47 H14         1.1136   -0.9068    3.7710 H         1 <0>         0.0669
     48 H15         1.3884   -2.5397    3.1360 H         1 <0>         0.0754
     49 H16        -0.3110   -2.3455    1.5404 H         1 <0>         0.0886
     50 H17         1.0648    0.3334    1.8636 H         1 <0>         0.0757
     51 H18         2.8310   -1.1161    1.4165 H         1 <0>         0.0660
     52 H19         1.7532   -2.3719    0.7299 H         1 <0>         0.0718
     53 H20         2.7774    0.1929   -0.6059 H         1 <0>         0.0748
     54 H21         2.7747   -1.4791   -1.2576 H         1 <0>         0.0706
     55 H22        -0.2147    0.7220   -2.6274 H         1 <0>         0.0732
     56 H23         1.2744    1.4286   -1.9553 H         1 <0>         0.0787
     57 H24         2.6267   -0.2315   -3.2058 H         1 <0>         0.0718
     58 H25         1.1376   -0.9382   -3.8779 H         1 <0>         0.0699
     59 H26         0.5852    1.2342   -4.9382 H         1 <0>         0.0453
     60 H27         2.0743    1.9409   -4.2662 H         1 <0>         0.0450
     61 H28         2.3963    1.1382   -6.4928 H         1 <0>         0.3816
     62 H29         0.7161   -2.1356   -2.4396 H         1 <0>         0.3732
     63 H30        -2.9996   -2.7129    1.0084 H         1 <0>         0.1170
     64 H31        -5.3071   -3.5614    0.8970 H         1 <0>         0.1192
     65 H32        -6.7820    0.4452    1.1508 H         1 <0>         0.1226
     66 H33        -4.4708    1.2822    1.2720 H         1 <0>         0.1198
     67 H34        -7.8018   -4.0375    1.6745 H         1 <0>         0.0475
     68 H35        -8.6977   -3.6364    0.1897 H         1 <0>         0.0660
     69 H36        -6.9438   -3.9315    0.1186 H         1 <0>         0.0680
     70 H37        -8.2541   -0.1473    1.1953 H         1 <0>         0.0780
     71 H38        -9.2962   -1.2490    0.2633 H         1 <0>         0.0554
     72 H39        -9.1741   -1.4216    2.0307 H         1 <0>         0.0520
@<TRIPOS>BOND
     1    1    2 1
     2    1   34 1
     3    1   35 1
     4    1   36 1
     5    2   16 1
     6    2   19 1
     7    2    3 1
     8    3    4 1
     9    3   37 1
    10    3   38 1
    11    4    5 1
    12    4   25 1
    13    4   39 1
    14    5   15 1
    15    5    6 2
    16    6   12 1
    17    6    7 1
    18    7    8 1
    19    7   40 1
    20    7   41 1
    21    8    9 1
    22    8   42 1
    23    8   43 1
    24    9   10 2
    25    9   11 1
    26   11   12 2
    27   11   44 1
    28   12   13 1
    29   13   14 1
    30   13   45 1
    31   13   46 1
    32   14   15 1
    33   14   47 1
    34   14   48 1
    35   15   16 1
    36   15   49 1
    37   16   17 1
    38   16   50 1
    39   17   18 1
    40   17   51 1
    41   17   52 1
    42   18   19 1
    43   18   53 1
    44   18   54 1
    45   19   20 1
    46   19   24 1
    47   20   21 1
    48   20   55 1
    49   20   56 1
    50   21   22 1
    51   21   57 1
    52   21   58 1
    53   22   23 1
    54   22   59 1
    55   22   60 1
    56   23   61 1
    57   24   62 1
    58   25   30 ar
    59   25   26 ar
    60   26   27 ar
    61   26   63 1
    62   27   28 ar
    63   27   64 1
    64   28   29 ar
    65   28   31 1
    66   29   30 ar
    67   29   65 1
    68   30   66 1
    69   31   32 1
    70   31   33 1
    71   32   67 1
    72   32   68 1
    73   32   69 1
    74   33   70 1
    75   33   71 1
    76   33   72 1
@<TRIPOS>MOLECULE
CHEMBL51577__2
   72    76     0     0     0
SMALL
USER_CHARGES

@<TRIPOS>ATOM
      1 C1         -0.0043    1.5256    0.0330 C.3       1 <0>        -0.1481
      2 C2          0.0175   -0.0065    0.0293 C.3       1 <0>        -0.0361
      3 C3         -1.3903   -0.5372   -0.0449 C.3       1 <0>        -0.0992
      4 C4         -2.0955   -0.6776    1.2951 C.3       1 <0>         0.0009
      5 C5         -1.3368   -0.3413    2.5425 C.2       1 <0>        -0.0350
      6 C6         -1.9717   -0.3303    3.7159 C.2       1 <0>        -0.1290
      7 C7         -3.4840   -0.3347    3.8028 C.3       1 <0>        -0.0804
      8 C8         -3.8948   -1.3682    4.8587 C.3       1 <0>        -0.1626
      9 C9         -3.1751   -1.0672    6.1481 C.2       1 <0>         0.3887
     10 O1         -3.7282   -1.2873    7.2039 O.2       1 <0>        -0.4735
     11 C10        -1.8753   -0.5337    6.1443 C.2       1 <0>        -0.2566
     12 C11        -1.2541   -0.2133    4.9854 C.2       1 <0>         0.0320
     13 C12         0.1863    0.2326    4.9854 C.3       1 <0>        -0.0987
     14 C13         0.8626   -0.3928    3.7614 C.3       1 <0>        -0.1117
     15 C14         0.1259    0.0472    2.5028 C.3       1 <0>        -0.0485
     16 C15         0.7386   -0.5766    1.2690 C.3       1 <0>        -0.0745
     17 C16         2.2039   -0.2071    1.0040 C.3       1 <0>        -0.1152
     18 C17         2.3631   -0.4429   -0.5203 C.3       1 <0>        -0.1504
     19 C18         0.9360   -0.4616   -1.1152 C.3       1 <0>         0.1426
     20 C19         0.8376    0.5199   -2.2843 C.3       1 <0>        -0.1432
     21 C20         1.7556    0.0572   -3.4174 C.3       1 <0>        -0.1266
     22 C21         1.6572    1.0390   -4.5867 C.3       1 <0>         0.0759
     23 O2          2.5147    0.6068   -5.6450 O.3       1 <0>        -0.5765
     24 O3          0.5889   -1.7778   -1.5394 O.3       1 <0>        -0.5489
     25 C22        -2.5548   -2.1098    1.3889 C.ar      1 <0>        -0.1308
     26 C23        -1.6285   -3.1356    1.3446 C.ar      1 <0>        -0.0538
     27 C24        -2.0459   -4.4493    1.4303 C.ar      1 <0>        -0.1947
     28 C25        -3.3980   -4.7396    1.5612 C.ar      1 <0>         0.2142
     29 C26        -4.3259   -3.7068    1.6054 C.ar      1 <0>        -0.1992
     30 C27        -3.9011   -2.3951    1.5249 C.ar      1 <0>        -0.0690
     31 N1         -3.8237   -6.0671    1.6477 N.pl3     1 <0>        -0.6394
     32 C28        -2.8610   -7.1578    1.4750 C.3       1 <0>         0.0941
     33 C29        -5.2329   -6.3688    1.9110 C.3       1 <0>         0.0888
     34 H1          1.0181    1.9035    0.0362 H         1 <0>         0.0594
     35 H2         -0.5213    1.8838   -0.8572 H         1 <0>         0.0615
     36 H3         -0.5252    1.8794    0.9228 H         1 <0>         0.0619
     37 H4         -1.9863    0.1235   -0.6992 H         1 <0>         0.0591
     38 H5         -1.3774   -1.5241   -0.5395 H         1 <0>         0.0900
     39 H6         -3.0075   -0.0589    1.2627 H         1 <0>         0.0819
     40 H7         -3.8156    0.6558    4.1413 H         1 <0>         0.0728
     41 H8         -3.9494   -0.5497    2.8548 H         1 <0>         0.0921
     42 H9         -4.9690   -1.3090    5.0234 H         1 <0>         0.0904
     43 H10        -3.6298   -2.3647    4.5154 H         1 <0>         0.0993
     44 H11        -1.3603   -0.3808    7.0813 H         1 <0>         0.1319
     45 H12         0.2430    1.3187    4.9153 H         1 <0>         0.0892
     46 H13         0.6841   -0.1064    5.8928 H         1 <0>         0.0843
     47 H14         1.8935   -0.0551    3.7102 H         1 <0>         0.0774
     48 H15         0.8264   -1.4734    3.8415 H         1 <0>         0.0689
     49 H16         0.1915    1.1350    2.4710 H         1 <0>         0.0916
     50 H17         0.6310   -1.6664    1.3053 H         1 <0>         0.0863
     51 H18         2.4011    0.8345    1.2560 H         1 <0>         0.0694
     52 H19         2.8714   -0.8623    1.5681 H         1 <0>         0.0671
     53 H20         2.9429    0.3690   -0.9646 H         1 <0>         0.0708
     54 H21         2.8603   -1.3955   -0.7041 H         1 <0>         0.0722
     55 H22        -0.1913    0.5567   -2.6423 H         1 <0>         0.0727
     56 H23         1.1423    1.5123   -1.9521 H         1 <0>         0.0799
     57 H24         2.7845    0.0205   -3.0594 H         1 <0>         0.0719
     58 H25         1.4509   -0.9352   -3.7496 H         1 <0>         0.0697
     59 H26         0.6284    1.0757   -4.9447 H         1 <0>         0.0453
     60 H27         1.9620    2.0314   -4.2545 H         1 <0>         0.0449
     61 H28         2.5030    1.1835   -6.4211 H         1 <0>         0.3815
     62 H29         1.1370   -2.1159   -2.2607 H         1 <0>         0.3738
     63 H30        -0.5774   -2.9092    1.2424 H         1 <0>         0.1223
     64 H31        -1.3220   -5.2500    1.3952 H         1 <0>         0.1185
     65 H32        -5.3779   -3.9290    1.7068 H         1 <0>         0.1218
     66 H33        -4.6215   -1.5915    1.5636 H         1 <0>         0.1190
     67 H34        -2.4346   -7.4226    2.4425 H         1 <0>         0.0470
     68 H35        -3.3669   -8.0253    1.0512 H         1 <0>         0.0657
     69 H36        -2.0652   -6.8369    0.8028 H         1 <0>         0.0680
     70 H37        -5.8072   -5.4424    1.9204 H         1 <0>         0.0778
     71 H38        -5.6159   -7.0258    1.1302 H         1 <0>         0.0552
     72 H39        -5.3241   -6.8626    2.8785 H         1 <0>         0.0517
@<TRIPOS>BOND
     1    1    2 1
     2    1   34 1
     3    1   35 1
     4    1   36 1
     5    2   16 1
     6    2   19 1
     7    2    3 1
     8    3    4 1
     9    3   37 1
    10    3   38 1
    11    4    5 1
    12    4   25 1
    13    4   39 1
    14    5   15 1
    15    5    6 2
    16    6   12 1
    17    6    7 1
    18    7    8 1
    19    7   40 1
    20    7   41 1
    21    8    9 1
    22    8   42 1
    23    8   43 1
    24    9   10 2
    25    9   11 1
    26   11   12 2
    27   11   44 1
    28   12   13 1
    29   13   14 1
    30   13   45 1
    31   13   46 1
    32   14   15 1
    33   14   47 1
    34   14   48 1
    35   15   16 1
    36   15   49 1
    37   16   17 1
    38   16   50 1
    39   17   18 1
    40   17   51 1
    41   17   52 1
    42   18   19 1
    43   18   53 1
    44   18   54 1
    45   19   20 1
    46   19   24 1
    47   20   21 1
    48   20   55 1
    49   20   56 1
    50   21   22 1
    51   21   57 1
    52   21   58 1
    53   22   23 1
    54   22   59 1
    55   22   60 1
    56   23   61 1
    57   24   62 1
    58   25   30 ar
    59   25   26 ar
    60   26   27 ar
    61   26   63 1
    62   27   28 ar
    63   27   64 1
    64   28   29 ar
    65   28   31 1
    66   29   30 ar
    67   29   65 1
    68   30   66 1
    69   31   32 1
    70   31   33 1
    71   32   67 1
    72   32   68 1
    73   32   69 1
    74   33   70 1
    75   33   71 1
    76   33   72 1
@<TRIPOS>MOLECULE
CHEMBL51577__3
   72    76     0     0     0
SMALL
USER_CHARGES

@<TRIPOS>ATOM
      1 C1         -0.0408    1.5845   -0.0047 C.3       1 <0>        -0.1432
      2 C2         -0.0109    0.0503   -0.0322 C.3       1 <0>        -0.0371
      3 C3         -1.4181   -0.5456   -0.1669 C.3       1 <0>        -0.0781
      4 C4         -2.1738   -0.3861    1.1510 C.3       1 <0>        -0.0156
      5 C5         -1.4344   -1.1828    2.1977 C.2       1 <0>        -0.0431
      6 C6         -1.8199   -2.3136    2.7561 C.2       1 <0>        -0.1111
      7 C7         -2.9178   -3.1924    2.2007 C.3       1 <0>        -0.0685
      8 C8         -2.5190   -4.6704    2.3136 C.3       1 <0>        -0.1698
      9 C9         -2.0892   -4.9797    3.7212 C.2       1 <0>         0.3897
     10 O1         -2.4336   -6.0143    4.2483 O.2       1 <0>        -0.4702
     11 C10        -1.2907   -4.0592    4.4202 C.2       1 <0>        -0.2533
     12 C11        -1.1131   -2.8130    3.9445 C.2       1 <0>         0.0238
     13 C12        -0.1711   -1.8517    4.6357 C.3       1 <0>        -0.0968
     14 C13         0.7353   -1.2726    3.5503 C.3       1 <0>        -0.1131
     15 C14        -0.0652   -0.5851    2.4659 C.3       1 <0>        -0.0475
     16 C15         0.7323   -0.5279    1.1793 C.3       1 <0>        -0.0706
     17 C16         1.1823   -1.9239    0.7078 C.3       1 <0>        -0.1165
     18 C17         1.6339   -1.6651   -0.7487 C.3       1 <0>        -0.1528
     19 C18         0.8036   -0.4694   -1.2495 C.3       1 <0>         0.1398
     20 C19         1.7343    0.6342   -1.7627 C.3       1 <0>        -0.1421
     21 C20         2.5313    0.1132   -2.9603 C.3       1 <0>        -0.1272
     22 C21         3.4608    1.2152   -3.4728 C.3       1 <0>         0.0761
     23 O2          4.2051    0.7286   -4.5913 O.3       1 <0>        -0.5763
     24 O3         -0.0759   -0.8854   -2.2959 O.3       1 <0>        -0.5515
     25 C22        -3.6496   -0.6580    1.0131 C.ar      1 <0>        -0.1261
     26 C23        -4.5429   -0.0814    1.8973 C.ar      1 <0>        -0.0613
     27 C24        -5.8961   -0.3284    1.7737 C.ar      1 <0>        -0.1974
     28 C25        -6.3594   -1.1573    0.7598 C.ar      1 <0>         0.2159
     29 C26        -5.4593   -1.7349   -0.1266 C.ar      1 <0>        -0.1991
     30 C27        -4.1080   -1.4791   -0.0008 C.ar      1 <0>        -0.0611
     31 N1         -7.7272   -1.4096    0.6323 N.pl3     1 <0>        -0.6391
     32 C28        -8.6847   -0.7084    1.4912 C.3       1 <0>         0.0926
     33 C29        -8.2044   -2.3756   -0.3604 C.3       1 <0>         0.0889
     34 H1          0.9795    1.9680   -0.0146 H         1 <0>         0.0615
     35 H2         -0.5761    1.9532   -0.8797 H         1 <0>         0.0624
     36 H3         -0.5470    1.9218    0.8998 H         1 <0>         0.0593
     37 H4         -1.9595   -0.0228   -0.9548 H         1 <0>         0.0755
     38 H5         -1.3446   -1.6050   -0.4097 H         1 <0>         0.0726
     39 H6         -2.0782    0.6853    1.4491 H         1 <0>         0.0808
     40 H7         -3.8458   -3.0188    2.7354 H         1 <0>         0.0760
     41 H8         -3.0451   -2.9998    1.1313 H         1 <0>         0.0895
     42 H9         -3.3746   -5.2921    2.0502 H         1 <0>         0.0916
     43 H10        -1.6970   -4.8745    1.6293 H         1 <0>         0.0959
     44 H11        -0.8193   -4.3558    5.3462 H         1 <0>         0.1338
     45 H12        -0.7399   -1.0555    5.1108 H         1 <0>         0.0866
     46 H13         0.4243   -2.3860    5.3726 H         1 <0>         0.0836
     47 H14         1.4189   -0.5557    4.0085 H         1 <0>         0.0749
     48 H15         1.3216   -2.0835    3.1159 H         1 <0>         0.0726
     49 H16        -0.2391    0.4407    2.7809 H         1 <0>         0.0753
     50 H17         1.6241    0.0749    1.3604 H         1 <0>         0.0751
     51 H18         2.0187   -2.2820    1.3084 H         1 <0>         0.0688
     52 H19         0.3534   -2.6284    0.7365 H         1 <0>         0.0724
     53 H20         2.6957   -1.4185   -0.7714 H         1 <0>         0.0713
     54 H21         1.4418   -2.5419   -1.3641 H         1 <0>         0.0726
     55 H22         1.1416    1.4965   -2.0681 H         1 <0>         0.0773
     56 H23         2.4214    0.9282   -0.9692 H         1 <0>         0.0740
     57 H24         3.1241   -0.7491   -2.6549 H         1 <0>         0.0721
     58 H25         1.8443   -0.1808   -3.7538 H         1 <0>         0.0704
     59 H26         2.8680    2.0775   -3.7782 H         1 <0>         0.0455
     60 H27         4.1478    1.5093   -2.6793 H         1 <0>         0.0448
     61 H28         4.8165    1.3759   -4.9686 H         1 <0>         0.3817
     62 H29         0.3780   -1.2194   -3.0817 H         1 <0>         0.3735
     63 H30        -4.1820    0.5626    2.6855 H         1 <0>         0.1169
     64 H31        -6.5931    0.1220    2.4648 H         1 <0>         0.1204
     65 H32        -5.8163   -2.3801   -0.9158 H         1 <0>         0.1221
     66 H33        -3.4081   -1.9244   -0.6924 H         1 <0>         0.1233
     67 H34        -8.9960    0.2176    1.0079 H         1 <0>         0.0480
     68 H35        -9.5558   -1.3422    1.6573 H         1 <0>         0.0658
     69 H36        -8.2147   -0.4790    2.4475 H         1 <0>         0.0687
     70 H37        -7.3513   -2.8623   -0.8332 H         1 <0>         0.0779
     71 H38        -8.8242   -3.1255    0.1310 H         1 <0>         0.0560
     72 H39        -8.7928   -1.8576   -1.1178 H         1 <0>         0.0515
@<TRIPOS>BOND
     1    1    2 1
     2    1   34 1
     3    1   35 1
     4    1   36 1
     5    2   16 1
     6    2   19 1
     7    2    3 1
     8    3    4 1
     9    3   37 1
    10    3   38 1
    11    4    5 1
    12    4   25 1
    13    4   39 1
    14    5   15 1
    15    5    6 2
    16    6   12 1
    17    6    7 1
    18    7    8 1
    19    7   40 1
    20    7   41 1
    21    8    9 1
    22    8   42 1
    23    8   43 1
    24    9   10 2
    25    9   11 1
    26   11   12 2
    27   11   44 1
    28   12   13 1
    29   13   14 1
    30   13   45 1
    31   13   46 1
    32   14   15 1
    33   14   47 1
    34   14   48 1
    35   15   16 1
    36   15   49 1
    37   16   17 1
    38   16   50 1
    39   17   18 1
    40   17   51 1
    41   17   52 1
    42   18   19 1
    43   18   53 1
    44   18   54 1
    45   19   20 1
    46   19   24 1
    47   20   21 1
    48   20   55 1
    49   20   56 1
    50   21   22 1
    51   21   57 1
    52   21   58 1
    53   22   23 1
    54   22   59 1
    55   22   60 1
    56   23   61 1
    57   24   62 1
    58   25   30 ar
    59   25   26 ar
    60   26   27 ar
    61   26   63 1
    62   27   28 ar
    63   27   64 1
    64   28   29 ar
    65   28   31 1
    66   29   30 ar
    67   29   65 1
    68   30   66 1
    69   31   32 1
    70   31   33 1
    71   32   67 1
    72   32   68 1
    73   32   69 1
    74   33   70 1
    75   33   71 1
    76   33   72 1
@<TRIPOS>MOLECULE
CHEMBL51577__4
   72    76     0     0     0
SMALL
USER_CHARGES

@<TRIPOS>ATOM
      1 C1         -0.0182    1.6828    0.3750 C.3       1 <0>        -0.1571
      2 C2         -0.0116    0.1735    0.1072 C.3       1 <0>        -0.0365
      3 C3         -1.4299   -0.3170   -0.0777 C.3       1 <0>        -0.0916
      4 C4         -1.9540   -0.8218    1.2757 C.3       1 <0>        -0.0092
      5 C5         -1.3262    0.0173    2.3660 C.2       1 <0>        -0.0368
      6 C6         -1.8699    1.0285    3.0139 C.2       1 <0>        -0.1141
      7 C7         -3.1909    1.6517    2.6214 C.3       1 <0>        -0.0706
      8 C8         -3.1109    3.1785    2.7598 C.3       1 <0>        -0.1708
      9 C9         -2.6131    3.5375    4.1332 C.2       1 <0>         0.3899
     10 O1         -3.1134    4.4575    4.7405 O.2       1 <0>        -0.4701
     11 C10        -1.5644    2.7989    4.7038 C.2       1 <0>        -0.2566
     12 C11        -1.1582    1.6392    4.1478 C.2       1 <0>         0.0260
     13 C12         0.0698    0.9384    4.6845 C.3       1 <0>        -0.1004
     14 C13         0.9184    0.5399    3.4704 C.3       1 <0>        -0.1069
     15 C14         0.1277   -0.3805    2.5773 C.3       1 <0>        -0.0529
     16 C15         0.7424   -0.5958    1.2155 C.3       1 <0>        -0.0714
     17 C16         2.1705   -0.0521    1.0367 C.3       1 <0>        -0.1171
     18 C17         2.3405   -0.0152   -0.5058 C.3       1 <0>        -0.1514
     19 C18         0.9122   -0.0666   -1.1026 C.3       1 <0>         0.1386
     20 C19         0.7233    1.0450   -2.1328 C.3       1 <0>        -0.1422
     21 C20         1.6454    0.7950   -3.3278 C.3       1 <0>        -0.1262
     22 C21         1.4561    1.9086   -4.3598 C.3       1 <0>         0.0759
     23 O2          2.3174    1.6750   -5.4760 O.3       1 <0>        -0.5764
     24 O3          0.6578   -1.3443   -1.6792 O.3       1 <0>        -0.5499
     25 C22        -3.4545   -0.9550    1.3198 C.ar      1 <0>        -0.1257
     26 C23        -4.2408   -0.1784    0.4886 C.ar      1 <0>        -0.0646
     27 C24        -5.6161   -0.2981    0.5265 C.ar      1 <0>        -0.1972
     28 C25        -6.2095   -1.1997    1.4009 C.ar      1 <0>         0.2160
     29 C26        -5.4166   -1.9783    2.2345 C.ar      1 <0>        -0.1976
     30 C27        -4.0417   -1.8577    2.1874 C.ar      1 <0>        -0.0602
     31 N1         -7.6002   -1.3229    1.4421 N.pl3     1 <0>        -0.6391
     32 C28        -8.4288   -0.5961    0.4771 C.3       1 <0>         0.0925
     33 C29        -8.2301   -2.1789    2.4504 C.3       1 <0>         0.0888
     34 H1          1.0075    2.0496    0.4125 H         1 <0>         0.0584
     35 H2         -0.5569    2.1914   -0.4245 H         1 <0>         0.0583
     36 H3         -0.5099    1.8807    1.3275 H         1 <0>         0.0717
     37 H4         -2.0598    0.5052   -0.4280 H         1 <0>         0.0661
     38 H5         -1.4603   -1.1266   -0.8067 H         1 <0>         0.0852
     39 H6         -1.5370   -1.8512    1.4002 H         1 <0>         0.0807
     40 H7         -3.4024    1.4560    1.5676 H         1 <0>         0.0908
     41 H8         -3.9874    1.2677    3.2509 H         1 <0>         0.0762
     42 H9         -2.4260    3.5718    2.0094 H         1 <0>         0.0959
     43 H10        -4.1017    3.6052    2.6090 H         1 <0>         0.0914
     44 H11        -1.0757    3.1644    5.5958 H         1 <0>         0.1334
     45 H12         0.6343    1.6163    5.3204 H         1 <0>         0.0840
     46 H13        -0.2225    0.0499    5.2384 H         1 <0>         0.0870
     47 H14         1.2019    1.4431    2.9333 H         1 <0>         0.0725
     48 H15         1.8183    0.0350    3.8220 H         1 <0>         0.0775
     49 H16         0.0920   -1.3673    3.0785 H         1 <0>         0.0761
     50 H17         0.7417   -1.6738    0.9786 H         1 <0>         0.0842
     51 H18         2.2892    0.9349    1.4693 H         1 <0>         0.0750
     52 H19         2.8931   -0.7450    1.4773 H         1 <0>         0.0645
     53 H20         2.8393    0.9050   -0.8056 H         1 <0>         0.0708
     54 H21         2.9141   -0.8802   -0.8378 H         1 <0>         0.0713
     55 H22        -0.3133    1.0558   -2.4697 H         1 <0>         0.0726
     56 H23         0.9681    2.0057   -1.6798 H         1 <0>         0.0802
     57 H24         2.6819    0.7842   -2.9909 H         1 <0>         0.0716
     58 H25         1.4006   -0.1657   -3.7809 H         1 <0>         0.0698
     59 H26         0.4195    1.9194   -4.6968 H         1 <0>         0.0455
     60 H27         1.7009    2.8693   -3.9068 H         1 <0>         0.0450
     61 H28         2.2503    2.3438   -6.1712 H         1 <0>         0.3816
     62 H29         1.2120   -1.5476   -2.4451 H         1 <0>         0.3747
     63 H30        -3.7788    0.5227   -0.1907 H         1 <0>         0.1228
     64 H31        -6.2297    0.3090   -0.1227 H         1 <0>         0.1213
     65 H32        -5.8748   -2.6800    2.9157 H         1 <0>         0.1221
     66 H33        -3.4245   -2.4658    2.8321 H         1 <0>         0.1178
     67 H34        -8.5828   -1.2140   -0.4076 H         1 <0>         0.0482
     68 H35        -9.3927   -0.3624    0.9292 H         1 <0>         0.0660
     69 H36        -7.9276    0.3287    0.1916 H         1 <0>         0.0691
     70 H37        -7.4686   -2.5593    3.1312 H         1 <0>         0.0775
     71 H38        -8.9631   -1.5998    3.0120 H         1 <0>         0.0562
     72 H39        -8.7274   -3.0147    1.9581 H         1 <0>         0.0519
@<TRIPOS>BOND
     1    1    2 1
     2    1   34 1
     3    1   35 1
     4    1   36 1
     5    2   16 1
     6    2   19 1
     7    2    3 1
     8    3    4 1
     9    3   37 1
    10    3   38 1
    11    4    5 1
    12    4   25 1
    13    4   39 1
    14    5   15 1
    15    5    6 2
    16    6   12 1
    17    6    7 1
    18    7    8 1
    19    7   40 1
    20    7   41 1
    21    8    9 1
    22    8   42 1
    23    8   43 1
    24    9   10 2
    25    9   11 1
    26   11   12 2
    27   11   44 1
    28   12   13 1
    29   13   14 1
    30   13   45 1
    31   13   46 1
    32   14   15 1
    33   14   47 1
    34   14   48 1
    35   15   16 1
    36   15   49 1
    37   16   17 1
    38   16   50 1
    39   17   18 1
    40   17   51 1
    41   17   52 1
    42   18   19 1
    43   18   53 1
    44   18   54 1
    45   19   20 1
    46   19   24 1
    47   20   21 1
    48   20   55 1
    49   20   56 1
    50   21   22 1
    51   21   57 1
    52   21   58 1
    53   22   23 1
    54   22   59 1
    55   22   60 1
    56   23   61 1
    57   24   62 1
    58   25   30 ar
    59   25   26 ar
    60   26   27 ar
    61   26   63 1
    62   27   28 ar
    63   27   64 1
    64   28   29 ar
    65   28   31 1
    66   29   30 ar
    67   29   65 1
    68   30   66 1
    69   31   32 1
    70   31   33 1
    71   32   67 1
    72   32   68 1
    73   32   69 1
    74   33   70 1
    75   33   71 1
    76   33   72 1
@<TRIPOS>MOLECULE
CHEMBL51577__5
   72    76     0     0     0
SMALL
USER_CHARGES

@<TRIPOS>ATOM
      1 C1         -0.1496    1.6041    0.4745 C.3       1 <0>        -0.1560
      2 C2         -0.0810    0.0853    0.2018 C.3       1 <0>        -0.0371
      3 C3         -1.5147   -0.3969    0.1443 C.3       1 <0>        -0.0778
      4 C4         -1.5785   -1.9186    0.2439 C.3       1 <0>        -0.0118
      5 C5         -0.9667   -2.2905    1.5741 C.2       1 <0>        -0.0440
      6 C6         -1.6101   -2.6863    2.6543 C.2       1 <0>        -0.1166
      7 C7         -3.1021   -2.5364    2.8478 C.3       1 <0>        -0.0680
      8 C8         -3.4013   -2.0856    4.2846 C.3       1 <0>        -0.1699
      9 C9         -2.7092   -2.9946    5.2628 C.2       1 <0>         0.3902
     10 O1         -3.2775   -3.3465    6.2721 O.2       1 <0>        -0.4709
     11 C10        -1.4013   -3.4347    4.9971 C.2       1 <0>        -0.2555
     12 C11        -0.8525   -3.2454    3.7835 C.2       1 <0>         0.0250
     13 C12         0.5897   -3.6172    3.5201 C.3       1 <0>        -0.0973
     14 C13         1.2408   -2.4102    2.8490 C.3       1 <0>        -0.1115
     15 C14         0.5246   -2.0170    1.5734 C.3       1 <0>        -0.0519
     16 C15         0.7753   -0.5272    1.3097 C.3       1 <0>        -0.0674
     17 C16         2.2235   -0.4356    0.7412 C.3       1 <0>        -0.1232
     18 C17         2.0299   -0.7249   -0.7646 C.3       1 <0>        -0.1570
     19 C18         0.6712   -0.0865   -1.1211 C.3       1 <0>         0.1461
     20 C19         0.9008    1.2858   -1.7671 C.3       1 <0>        -0.1448
     21 C20         1.6524    1.1084   -3.0879 C.3       1 <0>        -0.1290
     22 C21         1.8815    2.4771   -3.7322 C.3       1 <0>         0.0763
     23 O2          2.5834    2.3114   -4.9658 O.3       1 <0>        -0.5764
     24 O3         -0.0499   -0.9240   -2.0236 O.3       1 <0>        -0.5475
     25 C22        -2.9465   -2.4786   -0.0496 C.ar      1 <0>        -0.1165
     26 C23        -4.0683   -1.6914    0.1349 C.ar      1 <0>        -0.0658
     27 C24        -5.3234   -2.2015   -0.1331 C.ar      1 <0>        -0.1974
     28 C25        -5.4582   -3.5068   -0.5885 C.ar      1 <0>         0.2136
     29 C26        -4.3292   -4.2949   -0.7728 C.ar      1 <0>        -0.1977
     30 C27        -3.0766   -3.7767   -0.5083 C.ar      1 <0>        -0.0602
     31 N1         -6.7261   -4.0260   -0.8601 N.pl3     1 <0>        -0.6398
     32 C28        -7.9040   -3.1580   -0.7875 C.3       1 <0>         0.0931
     33 C29        -6.8780   -5.4386   -1.2175 C.3       1 <0>         0.0894
     34 H1          0.8571    2.0217    0.4597 H         1 <0>         0.0617
     35 H2         -0.7537    2.0846   -0.2951 H         1 <0>         0.0624
     36 H3         -0.6006    1.7778    1.4515 H         1 <0>         0.0564
     37 H4         -2.0635    0.0391    0.9815 H         1 <0>         0.0582
     38 H5         -1.9698   -0.0700   -0.7881 H         1 <0>         0.0778
     39 H6         -0.8902   -2.3226   -0.5356 H         1 <0>         0.1011
     40 H7         -3.4868   -1.7448    2.1990 H         1 <0>         0.0896
     41 H8         -3.6038   -3.4771    2.6453 H         1 <0>         0.0755
     42 H9         -3.0474   -1.0649    4.4227 H         1 <0>         0.0959
     43 H10        -4.4774   -2.1229    4.4547 H         1 <0>         0.0913
     44 H11        -0.8354   -3.9297    5.7732 H         1 <0>         0.1333
     45 H12         1.0914   -3.8364    4.4603 H         1 <0>         0.0831
     46 H13         0.6326   -4.4794    2.8578 H         1 <0>         0.0864
     47 H14         1.2228   -1.5699    3.5452 H         1 <0>         0.0679
     48 H15         2.2797   -2.6515    2.6216 H         1 <0>         0.0743
     49 H16         0.9490   -2.5851    0.7488 H         1 <0>         0.0810
     50 H17         0.6829    0.0496    2.2447 H         1 <0>         0.0845
     51 H18         2.6419    0.5574    0.8943 H         1 <0>         0.0689
     52 H19         2.8642   -1.1927    1.1944 H         1 <0>         0.0725
     53 H20         2.8277   -0.2635   -1.3435 H         1 <0>         0.0730
     54 H21         2.0021   -1.7983   -0.9422 H         1 <0>         0.0760
     55 H22        -0.0604    1.7633   -1.9573 H         1 <0>         0.0761
     56 H23         1.4898    1.9098   -1.0949 H         1 <0>         0.0797
     57 H24         2.6136    0.6309   -2.8977 H         1 <0>         0.0728
     58 H25         1.0634    0.4844   -3.7601 H         1 <0>         0.0705
     59 H26         0.9203    2.9546   -3.9224 H         1 <0>         0.0453
     60 H27         2.4705    3.1010   -3.0600 H         1 <0>         0.0446
     61 H28         2.7635    3.1402   -5.4303 H         1 <0>         0.3816
     62 H29         0.3916   -1.0586   -2.8733 H         1 <0>         0.3735
     63 H30        -3.9628   -0.6767    0.4894 H         1 <0>         0.1195
     64 H31        -6.1992   -1.5862    0.0116 H         1 <0>         0.1201
     65 H32        -4.4305   -5.3103   -1.1264 H         1 <0>         0.1208
     66 H33        -2.1981   -4.3874   -0.6555 H         1 <0>         0.1166
     67 H34        -8.0813   -2.7038   -1.7624 H         1 <0>         0.0475
     68 H35        -8.7733   -3.7486   -0.4983 H         1 <0>         0.0653
     69 H36        -7.7338   -2.3757   -0.0478 H         1 <0>         0.0688
     70 H37        -5.9148   -5.9413   -1.1297 H         1 <0>         0.0773
     71 H38        -7.5957   -5.9084   -0.5450 H         1 <0>         0.0555
     72 H39        -7.2366   -5.5172   -2.2439 H         1 <0>         0.0511
@<TRIPOS>BOND
     1    1    2 1
     2    1   34 1
     3    1   35 1
     4    1   36 1
     5    2   16 1
     6    2   19 1
     7    2    3 1
     8    3    4 1
     9    3   37 1
    10    3   38 1
    11    4    5 1
    12    4   25 1
    13    4   39 1
    14    5   15 1
    15    5    6 2
    16    6   12 1
    17    6    7 1
    18    7    8 1
    19    7   40 1
    20    7   41 1
    21    8    9 1
    22    8   42 1
    23    8   43 1
    24    9   10 2
    25    9   11 1
    26   11   12 2
    27   11   44 1
    28   12   13 1
    29   13   14 1
    30   13   45 1
    31   13   46 1
    32   14   15 1
    33   14   47 1
    34   14   48 1
    35   15   16 1
    36   15   49 1
    37   16   17 1
    38   16   50 1
    39   17   18 1
    40   17   51 1
    41   17   52 1
    42   18   19 1
    43   18   53 1
    44   18   54 1
    45   19   20 1
    46   19   24 1
    47   20   21 1
    48   20   55 1
    49   20   56 1
    50   21   22 1
    51   21   57 1
    52   21   58 1
    53   22   23 1
    54   22   59 1
    55   22   60 1
    56   23   61 1
    57   24   62 1
    58   25   30 ar
    59   25   26 ar
    60   26   27 ar
    61   26   63 1
    62   27   28 ar
    63   27   64 1
    64   28   29 ar
    65   28   31 1
    66   29   30 ar
    67   29   65 1
    68   30   66 1
    69   31   32 1
    70   31   33 1
    71   32   67 1
    72   32   68 1
    73   32   69 1
    74   33   70 1
    75   33   71 1
    76   33   72 1
@<TRIPOS>MOLECULE
CHEMBL51577__6
   72    76     0     0     0
SMALL
USER_CHARGES

@<TRIPOS>ATOM
      1 C1          0.1118    1.6101    0.2943 C.3       1 <0>        -0.1670
      2 C2          0.1783    0.0820    0.2598 C.3       1 <0>        -0.0422
      3 C3         -1.2256   -0.4973    0.2613 C.3       1 <0>        -0.0856
      4 C4         -1.9823    0.1497    1.4314 C.3       1 <0>        -0.0237
      5 C5         -1.1922    0.0315    2.7196 C.2       1 <0>        -0.0427
      6 C6         -1.8630   -0.2947    3.8230 C.2       1 <0>        -0.1327
      7 C7         -3.3537   -0.5410    3.7733 C.3       1 <0>        -0.0800
      8 C8         -3.6749   -1.7703    4.6289 C.3       1 <0>        -0.1663
      9 C9         -3.0464   -1.6300    5.9890 C.2       1 <0>         0.3874
     10 O1         -3.6335   -2.0564    6.9631 O.2       1 <0>        -0.4719
     11 C10        -1.7928   -1.0154    6.1544 C.2       1 <0>        -0.2496
     12 C11        -1.1883   -0.3984    5.1165 C.2       1 <0>         0.0279
     13 C12         0.1866    0.2101    5.2451 C.3       1 <0>        -0.0962
     14 C13         0.9828   -0.1736    3.9987 C.3       1 <0>        -0.1115
     15 C14         0.2937    0.2864    2.7254 C.3       1 <0>        -0.0487
     16 C15         0.8925   -0.4460    1.5321 C.3       1 <0>        -0.0782
     17 C16         2.3561   -0.0866    1.2427 C.3       1 <0>        -0.1144
     18 C17         2.5128   -0.4360   -0.2611 C.3       1 <0>        -0.1513
     19 C18         1.0932   -0.3739   -0.8749 C.3       1 <0>         0.1468
     20 C19         1.0565    0.6367   -2.0230 C.3       1 <0>        -0.1398
     21 C20         1.9781    0.1632   -3.1488 C.3       1 <0>        -0.1270
     22 C21         1.9414    1.1737   -4.2970 C.3       1 <0>         0.0765
     23 O2          2.8022    0.7315   -5.3485 O.3       1 <0>        -0.5762
     24 O3          0.6984   -1.6663   -1.3395 O.3       1 <0>        -0.5526
     25 C22        -2.2149    1.6069    1.1252 C.ar      1 <0>        -0.1105
     26 C23        -2.6133    1.9904   -0.1423 C.ar      1 <0>        -0.0696
     27 C24        -2.8273    3.3249   -0.4263 C.ar      1 <0>        -0.1949
     28 C25        -2.6421    4.2823    0.5630 C.ar      1 <0>         0.2117
     29 C26        -2.2419    3.8935    1.8352 C.ar      1 <0>        -0.1956
     30 C27        -2.0351    2.5568    2.1139 C.ar      1 <0>        -0.0757
     31 N1         -2.8573    5.6328    0.2791 N.pl3     1 <0>        -0.6394
     32 C28        -3.3902    6.0311   -1.0262 C.3       1 <0>         0.0931
     33 C29        -2.5502    6.6511    1.2866 C.3       1 <0>         0.0888
     34 H1          1.1119    2.0206    0.1547 H         1 <0>         0.0453
     35 H2         -0.5407    1.9636   -0.5040 H         1 <0>         0.0690
     36 H3         -0.2831    1.9350    1.2570 H         1 <0>         0.0915
     37 H4         -1.7250   -0.2628   -0.6788 H         1 <0>         0.0710
     38 H5         -1.1813   -1.5776    0.3999 H         1 <0>         0.0747
     39 H6         -2.9444   -0.3475    1.5544 H         1 <0>         0.0981
     40 H7         -3.8814    0.3274    4.1678 H         1 <0>         0.0804
     41 H8         -3.6605   -0.7219    2.7432 H         1 <0>         0.0932
     42 H9         -4.7555   -1.8629    4.7376 H         1 <0>         0.0940
     43 H10        -3.2843   -2.6630    4.1404 H         1 <0>         0.0991
     44 H11        -1.3095   -1.0364    7.1199 H         1 <0>         0.1340
     45 H12         0.1057    1.2950    5.3124 H         1 <0>         0.0880
     46 H13         0.6817   -0.1801    6.1344 H         1 <0>         0.0845
     47 H14         1.9705    0.2842    4.0533 H         1 <0>         0.0761
     48 H15         1.0964   -1.2573    3.9695 H         1 <0>         0.0682
     49 H16         0.4694    1.3542    2.5945 H         1 <0>         0.0947
     50 H17         0.7597   -1.5236    1.6282 H         1 <0>         0.0838
     51 H18         2.5326    0.9757    1.4117 H         1 <0>         0.0693
     52 H19         3.0287   -0.6914    1.8508 H         1 <0>         0.0673
     53 H20         3.1629    0.2907   -0.7482 H         1 <0>         0.0701
     54 H21         2.9242   -1.4394   -0.3711 H         1 <0>         0.0727
     55 H22         0.0372    0.7220   -2.3996 H         1 <0>         0.0719
     56 H23         1.3932    1.6086   -1.6625 H         1 <0>         0.0790
     57 H24         2.9974    0.0779   -2.7723 H         1 <0>         0.0718
     58 H25         1.6414   -0.8088   -3.5094 H         1 <0>         0.0697
     59 H26         0.9221    1.2590   -4.6735 H         1 <0>         0.0452
     60 H27         2.2781    2.1457   -3.9364 H         1 <0>         0.0445
     61 H28         2.8285    1.3253   -6.1112 H         1 <0>         0.3813
     62 H29         1.2438   -2.0084   -2.0610 H         1 <0>         0.3732
     63 H30        -2.7567    1.2456   -0.9111 H         1 <0>         0.1215
     64 H31        -3.1381    3.6238   -1.4165 H         1 <0>         0.1201
     65 H32        -2.0967    4.6354    2.6065 H         1 <0>         0.1210
     66 H33        -1.7282    2.2535    3.1039 H         1 <0>         0.1209
     67 H34        -4.4790    6.0547   -0.9822 H         1 <0>         0.0479
     68 H35        -3.0154    7.0214   -1.2848 H         1 <0>         0.0653
     69 H36        -3.0725    5.3134   -1.7826 H         1 <0>         0.0684
     70 H37        -2.2531    6.1649    2.2158 H         1 <0>         0.0777
     71 H38        -1.7356    7.2813    0.9296 H         1 <0>         0.0517
     72 H39        -3.4334    7.2648    1.4639 H         1 <0>         0.0551
@<TRIPOS>BOND
     1    1    2 1
     2    1   34 1
     3    1   35 1
     4    1   36 1
     5    2   16 1
     6    2   19 1
     7    2    3 1
     8    3    4 1
     9    3   37 1
    10    3   38 1
    11    4    5 1
    12    4   25 1
    13    4   39 1
    14    5   15 1
    15    5    6 2
    16    6   12 1
    17    6    7 1
    18    7    8 1
    19    7   40 1
    20    7   41 1
    21    8    9 1
    22    8   42 1
    23    8   43 1
    24    9   10 2
    25    9   11 1
    26   11   12 2
    27   11   44 1
    28   12   13 1
    29   13   14 1
    30   13   45 1
    31   13   46 1
    32   14   15 1
    33   14   47 1
    34   14   48 1
    35   15   16 1
    36   15   49 1
    37   16   17 1
    38   16   50 1
    39   17   18 1
    40   17   51 1
    41   17   52 1
    42   18   19 1
    43   18   53 1
    44   18   54 1
    45   19   20 1
    46   19   24 1
    47   20   21 1
    48   20   55 1
    49   20   56 1
    50   21   22 1
    51   21   57 1
    52   21   58 1
    53   22   23 1
    54   22   59 1
    55   22   60 1
    56   23   61 1
    57   24   62 1
    58   25   30 ar
    59   25   26 ar
    60   26   27 ar
    61   26   63 1
    62   27   28 ar
    63   27   64 1
    64   28   29 ar
    65   28   31 1
    66   29   30 ar
    67   29   65 1
    68   30   66 1
    69   31   32 1
    70   31   33 1
    71   32   67 1
    72   32   68 1
    73   32   69 1
    74   33   70 1
    75   33   71 1
    76   33   72 1
@<TRIPOS>MOLECULE
CHEMBL51577__7
   72    76     0     0     0
SMALL
USER_CHARGES

@<TRIPOS>ATOM
      1 C1         -0.5981    1.5475   -0.6077 C.3       1 <0>        -0.1493
      2 C2         -0.5246    0.0193   -0.5940 C.3       1 <0>        -0.0270
      3 C3         -1.8392   -0.6157   -0.1270 C.3       1 <0>        -0.0853
      4 C4         -2.0986   -0.2706    1.3371 C.3       1 <0>        -0.0235
      5 C5         -0.9314   -0.7810    2.1604 C.2       1 <0>        -0.0386
      6 C6         -1.1922   -1.5338    3.2242 C.2       1 <0>        -0.1333
      7 C7         -2.6116   -1.8918    3.5981 C.3       1 <0>        -0.0777
      8 C8         -2.6521   -3.3685    4.0034 C.3       1 <0>        -0.1656
      9 C9         -1.5797   -3.6542    5.0195 C.2       1 <0>         0.3876
     10 O1         -1.7998   -4.4515    5.9090 O.2       1 <0>        -0.4722
     11 C10        -0.3277   -3.0171    4.9597 C.2       1 <0>        -0.2504
     12 C11        -0.1074   -2.0182    4.0793 C.2       1 <0>         0.0281
     13 C12         1.2417   -1.3564    3.9427 C.3       1 <0>        -0.0954
     14 C13         1.5405   -1.2011    2.4527 C.3       1 <0>        -0.1142
     15 C14         0.4557   -0.4091    1.7373 C.3       1 <0>        -0.0423
     16 C15         0.6481   -0.4963    0.2542 C.3       1 <0>        -0.0718
     17 C16         0.8369   -1.9442   -0.2320 C.3       1 <0>        -0.1173
     18 C17         0.6230   -1.8373   -1.7603 C.3       1 <0>        -0.1543
     19 C18        -0.2168   -0.5680   -1.9990 C.3       1 <0>         0.1384
     20 C19         0.5799    0.4414   -2.8280 C.3       1 <0>        -0.1402
     21 C20         0.8749   -0.1512   -4.2074 C.3       1 <0>        -0.1270
     22 C21         1.6716    0.8583   -5.0364 C.3       1 <0>         0.0762
     23 O2          1.9470    0.3048   -6.3248 O.3       1 <0>        -0.5762
     24 O3         -1.4338   -0.9030   -2.6688 O.3       1 <0>        -0.5522
     25 C22        -2.2158    1.2237    1.4938 C.ar      1 <0>        -0.1181
     26 C23        -3.0048    1.9491    0.6200 C.ar      1 <0>        -0.0593
     27 C24        -3.1145    3.3186    0.7608 C.ar      1 <0>        -0.1962
     28 C25        -2.4311    3.9673    1.7814 C.ar      1 <0>         0.2133
     29 C26        -1.6394    3.2355    2.6574 C.ar      1 <0>        -0.1995
     30 C27        -1.5386    1.8656    2.5144 C.ar      1 <0>        -0.0717
     31 N1         -2.5394    5.3522    1.9264 N.pl3     1 <0>        -0.6396
     32 C28        -3.4626    6.1077    1.0760 C.3       1 <0>         0.0929
     33 C29        -1.7298    6.0494    2.9288 C.3       1 <0>         0.0890
     34 H1          0.2561    1.9474   -1.1541 H         1 <0>         0.0498
     35 H2         -1.5209    1.8625   -1.0949 H         1 <0>         0.0634
     36 H3         -0.5818    1.9212    0.4160 H         1 <0>         0.0770
     37 H4         -2.6595   -0.2388   -0.7379 H         1 <0>         0.0770
     38 H5         -1.7768   -1.6983   -0.2375 H         1 <0>         0.0687
     39 H6         -3.0198   -0.7488    1.6697 H         1 <0>         0.0968
     40 H7         -2.9366   -1.2736    4.4349 H         1 <0>         0.0799
     41 H8         -3.2675   -1.7289    2.7429 H         1 <0>         0.0920
     42 H9         -3.6273   -3.5991    4.4323 H         1 <0>         0.0940
     43 H10        -2.4904   -3.9898    3.1225 H         1 <0>         0.0988
     44 H11         0.4641   -3.3293    5.6245 H         1 <0>         0.1336
     45 H12         1.2213   -0.3760    4.4187 H         1 <0>         0.0878
     46 H13         2.0061   -1.9777    4.4093 H         1 <0>         0.0847
     47 H14         2.4934   -0.6856    2.3335 H         1 <0>         0.0751
     48 H15         1.6145   -2.1902    2.0005 H         1 <0>         0.0729
     49 H16         0.6005    0.6390    1.9994 H         1 <0>         0.0838
     50 H17         1.5424    0.0674   -0.0117 H         1 <0>         0.0718
     51 H18         1.8439   -2.2965   -0.0085 H         1 <0>         0.0682
     52 H19         0.0906   -2.6004    0.2157 H         1 <0>         0.0706
     53 H20         1.5842   -1.7499   -2.2667 H         1 <0>         0.0705
     54 H21         0.0869   -2.7137   -2.1245 H         1 <0>         0.0725
     55 H22        -0.0009    1.3566   -2.9424 H         1 <0>         0.0774
     56 H23         1.5182    0.6675   -2.3215 H         1 <0>         0.0730
     57 H24         1.4557   -1.0664   -4.0931 H         1 <0>         0.0722
     58 H25        -0.0635   -0.3773   -4.7139 H         1 <0>         0.0702
     59 H26         1.0907    1.7735   -5.1508 H         1 <0>         0.0453
     60 H27         2.6099    1.0844   -4.5299 H         1 <0>         0.0446
     61 H28         2.4505    0.8916   -6.9054 H         1 <0>         0.3814
     62 H29        -1.3070   -1.2751   -3.5523 H         1 <0>         0.3725
     63 H30        -3.5356    1.4442   -0.1735 H         1 <0>         0.1213
     64 H31        -3.7306    3.8846    0.0778 H         1 <0>         0.1202
     65 H32        -1.1064    3.7368    3.4518 H         1 <0>         0.1203
     66 H33        -0.9267    1.2955    3.1978 H         1 <0>         0.1193
     67 H34        -4.4381    6.1641    1.5591 H         1 <0>         0.0477
     68 H35        -3.0742    7.1146    0.9229 H         1 <0>         0.0651
     69 H36        -3.5624    5.6066    0.1132 H         1 <0>         0.0689
     70 H37        -1.1766    5.3199    3.5203 H         1 <0>         0.0775
     71 H38        -1.0292    6.7182    2.4288 H         1 <0>         0.0515
     72 H39        -2.3813    6.6287    3.5830 H         1 <0>         0.0549
@<TRIPOS>BOND
     1    1    2 1
     2    1   34 1
     3    1   35 1
     4    1   36 1
     5    2   16 1
     6    2   19 1
     7    2    3 1
     8    3    4 1
     9    3   37 1
    10    3   38 1
    11    4    5 1
    12    4   25 1
    13    4   39 1
    14    5   15 1
    15    5    6 2
    16    6   12 1
    17    6    7 1
    18    7    8 1
    19    7   40 1
    20    7   41 1
    21    8    9 1
    22    8   42 1
    23    8   43 1
    24    9   10 2
    25    9   11 1
    26   11   12 2
    27   11   44 1
    28   12   13 1
    29   13   14 1
    30   13   45 1
    31   13   46 1
    32   14   15 1
    33   14   47 1
    34   14   48 1
    35   15   16 1
    36   15   49 1
    37   16   17 1
    38   16   50 1
    39   17   18 1
    40   17   51 1
    41   17   52 1
    42   18   19 1
    43   18   53 1
    44   18   54 1
    45   19   20 1
    46   19   24 1
    47   20   21 1
    48   20   55 1
    49   20   56 1
    50   21   22 1
    51   21   57 1
    52   21   58 1
    53   22   23 1
    54   22   59 1
    55   22   60 1
    56   23   61 1
    57   24   62 1
    58   25   30 ar
    59   25   26 ar
    60   26   27 ar
    61   26   63 1
    62   27   28 ar
    63   27   64 1
    64   28   29 ar
    65   28   31 1
    66   29   30 ar
    67   29   65 1
    68   30   66 1
    69   31   32 1
    70   31   33 1
    71   32   67 1
    72   32   68 1
    73   32   69 1
    74   33   70 1
    75   33   71 1
    76   33   72 1
@<TRIPOS>MOLECULE
CHEMBL368688
   64    69     0     0     0
SMALL
USER_CHARGES

@<TRIPOS>ATOM
      1 C1          1.1631   -0.6117   -0.4390 C.ar      1 <0>        -0.0873
      2 C2          2.3518    0.0921   -0.4484 C.ar      1 <0>        -0.1390
      3 C3          2.3800    1.4096   -0.0147 C.ar      1 <0>         0.1156
      4 C4          1.2137    2.0170    0.4273 C.ar      1 <0>        -0.1461
      5 C5          0.0275    1.3089    0.4346 C.ar      1 <0>        -0.0836
      6 C6          0.0021   -0.0041    0.0020 C.ar      1 <0>        -0.0894
      7 C7         -1.2934   -0.7740    0.0107 C.3       1 <0>        -0.0642
      8 H1         -2.1334   -0.0869    0.1120 H         1 <0>         0.1382
      9 C8         -1.2969   -1.7821    1.1721 C.3       1 <0>         0.1497
     10 H2         -2.1779   -2.4197    1.0986 H         1 <0>         0.0960
     11 O1         -0.1255   -2.5802    1.0967 O.3       1 <0>        -0.3050
     12 C9          0.1551   -3.3416    0.0132 C.ar      1 <0>         0.1211
     13 C10         0.9986   -4.4351    0.1946 C.ar      1 <0>        -0.1140
     14 C11         1.3394   -5.2447   -0.8692 C.ar      1 <0>        -0.1062
     15 C12         0.8443   -4.9772   -2.1372 C.ar      1 <0>         0.0985
     16 C13        -0.0005   -3.8960   -2.3286 C.ar      1 <0>        -0.0901
     17 C14        -0.3494   -3.0850   -1.2568 C.ar      1 <0>        -0.1476
     18 S1         -1.4568   -1.7323   -1.5285 S.3       1 <0>        -0.0842
     19 O2          1.1866   -5.7716   -3.1864 O.3       1 <0>        -0.4915
     20 C15        -1.3198   -1.0400    2.4835 C.ar      1 <0>        -0.1049
     21 C16        -0.1522   -0.5024    2.9927 C.ar      1 <0>        -0.0347
     22 C17        -0.1704    0.1779    4.1949 C.ar      1 <0>        -0.1431
     23 C18        -1.3617    0.3218    4.8912 C.ar      1 <0>         0.1231
     24 C19        -2.5320   -0.2182    4.3779 C.ar      1 <0>        -0.2029
     25 C20        -2.5094   -0.8931    3.1727 C.ar      1 <0>        -0.0587
     26 O3         -1.3822    0.9902    6.0743 O.3       1 <0>        -0.3241
     27 C21        -2.6441    1.0995    6.7359 C.3       1 <0>         0.0315
     28 C22        -2.4698    1.8785    8.0411 C.3       1 <0>         0.0021
     29 N1         -2.0692    3.2589    7.7377 N.4       1 <0>        -0.4125
     30 C23        -0.6177    3.3419    7.3429 C.3       1 <0>         0.0425
     31 C24         0.0758    2.8656    8.6548 C.3       1 <0>        -0.1446
     32 C25        -0.8648    3.3838    9.7701 C.3       1 <0>        -0.1466
     33 C26        -2.0010    4.1039    8.9831 C.3       1 <0>         0.0364
     34 C27        -1.3459    5.4036    8.4261 C.3       1 <0>        -0.1454
     35 C28        -0.4052    4.8855    7.3107 C.3       1 <0>        -0.1487
     36 O4          3.5482    2.1039   -0.0225 O.3       1 <0>        -0.5000
     37 H3          1.1398   -1.6359   -0.7807 H         1 <0>         0.1322
     38 H4          3.2585   -0.3831   -0.7926 H         1 <0>         0.1314
     39 H5          1.2331    3.0424    0.7657 H         1 <0>         0.1292
     40 H6         -0.8807    1.7813    0.7787 H         1 <0>         0.1235
     41 H7          1.3899   -4.6512    1.1778 H         1 <0>         0.1412
     42 H8          1.9942   -6.0894   -0.7144 H         1 <0>         0.1429
     43 H9         -0.3883   -3.6831   -3.3139 H         1 <0>         0.1405
     44 H10         0.5878   -6.5179   -3.3264 H         1 <0>         0.3946
     45 H11         0.7750   -0.6147    2.4504 H         1 <0>         0.1383
     46 H12         0.7420    0.5970    4.5927 H         1 <0>         0.1342
     47 H13        -3.4607   -0.1075    4.9180 H         1 <0>         0.1312
     48 H14        -3.4210   -1.3098    2.7705 H         1 <0>         0.1342
     49 H15        -3.3483    1.6246    6.0906 H         1 <0>         0.0844
     50 H16        -3.0265    0.1028    6.9560 H         1 <0>         0.1085
     51 H17        -3.4123    1.8857    8.5886 H         1 <0>         0.1466
     52 H18        -1.7003    1.4021    8.6486 H         1 <0>         0.1423
     53 H19        -0.3411    2.8096    6.4327 H         1 <0>         0.1742
     54 H20         0.1402    1.7779    8.6817 H         1 <0>         0.0982
     55 H21         1.0657    3.3121    8.7494 H         1 <0>         0.1132
     56 H22        -1.2667    2.5528   10.3499 H         1 <0>         0.0964
     57 H23        -0.3413    4.0871   10.4177 H         1 <0>         0.1141
     58 H24        -2.9393    4.2321    9.5229 H         1 <0>         0.1667
     59 H25        -2.1039    6.0679    8.0109 H         1 <0>         0.0976
     60 H26        -0.7754    5.9099    9.2047 H         1 <0>         0.1148
     61 H27         0.6315    5.1349    7.5365 H         1 <0>         0.1141
     62 H28        -0.6969    5.2929    6.3427 H         1 <0>         0.0968
     63 H29         3.7178    2.5792   -0.8474 H         1 <0>         0.3955
     64 H30        -2.6695    3.6724    7.0401 H         1 <0>         0.4229
@<TRIPOS>BOND
     1    1    6 ar
     2    1    2 ar
     3    1   37 1
     4    2    3 ar
     5    2   38 1
     6    3    4 ar
     7    3   36 1
     8    4    5 ar
     9    4   39 1
    10    5    6 ar
    11    5   40 1
    12    6    7 1
    13    7    8 1
    14    7   18 1
    15    7    9 1
    16    9   10 1
    17    9   11 1
    18    9   20 1
    19   11   12 1
    20   12   17 ar
    21   12   13 ar
    22   13   14 ar
    23   13   41 1
    24   14   15 ar
    25   14   42 1
    26   15   16 ar
    27   15   19 1
    28   16   17 ar
    29   16   43 1
    30   17   18 1
    31   19   44 1
    32   20   25 ar
    33   20   21 ar
    34   21   22 ar
    35   21   45 1
    36   22   23 ar
    37   22   46 1
    38   23   24 ar
    39   23   26 1
    40   24   25 ar
    41   24   47 1
    42   25   48 1
    43   26   27 1
    44   27   28 1
    45   27   49 1
    46   27   50 1
    47   28   29 1
    48   28   51 1
    49   28   52 1
    50   29   33 1
    51   29   30 1
    52   29   64 1
    53   30   35 1
    54   30   31 1
    55   30   53 1
    56   31   32 1
    57   31   54 1
    58   31   55 1
    59   32   33 1
    60   32   56 1
    61   32   57 1
    62   33   34 1
    63   33   58 1
    64   34   35 1
    65   34   59 1
    66   34   60 1
    67   35   61 1
    68   35   62 1
    69   36   63 1
@<TRIPOS>MOLECULE
CHEMBL47012
   65    69     0     0     0
SMALL
USER_CHARGES

@<TRIPOS>ATOM
      1 C1         -5.5091   -1.9692   -0.5956 C.ar      1 <0>        -0.0900
      2 C2         -5.8046   -1.6177    0.7073 C.ar      1 <0>        -0.1427
      3 C3         -4.9702   -2.0212    1.7396 C.ar      1 <0>         0.1133
      4 C4         -3.8408   -2.7770    1.4604 C.ar      1 <0>        -0.1420
      5 C5         -3.5497   -3.1259    0.1558 C.ar      1 <0>        -0.0844
      6 C6         -4.3829   -2.7225   -0.8713 C.ar      1 <0>        -0.1038
      7 C7         -4.0632   -3.1049   -2.2935 C.3       1 <0>        -0.0020
      8 C8         -3.1966   -2.0412   -2.9170 C.2       1 <0>        -0.1450
      9 C9         -1.8377   -1.9845   -2.9233 C.2       1 <0>        -0.1855
     10 C10        -1.2024   -0.8476   -3.5958 C.ar      1 <0>        -0.0684
     11 C11         0.1620   -0.5382   -3.7544 C.ar      1 <0>        -0.0637
     12 C12         0.5451    0.5847   -4.4229 C.ar      1 <0>        -0.1333
     13 C13        -0.3929    1.4571   -4.9675 C.ar      1 <0>         0.1308
     14 C14        -1.7440    1.1808   -4.8290 C.ar      1 <0>        -0.0942
     15 C15        -2.1369    0.0452   -4.1531 C.ar      1 <0>        -0.1295
     16 S1         -3.7034   -0.6805   -3.7562 S.3       1 <0>         0.1919
     17 O1          0.0133    2.5725   -5.6300 O.3       1 <0>        -0.4897
     18 C16        -1.0335   -3.0278   -2.2774 C.2       1 <0>         0.4606
     19 O2         -0.6373   -2.8722   -1.1369 O.2       1 <0>        -0.4266
     20 C17        -0.7047   -4.2665   -3.0107 C.ar      1 <0>        -0.1843
     21 C18        -1.0568   -4.3984   -4.3567 C.ar      1 <0>        -0.0214
     22 C19        -0.7483   -5.5552   -5.0370 C.ar      1 <0>        -0.1529
     23 C20        -0.0877   -6.5910   -4.3867 C.ar      1 <0>         0.1468
     24 C21         0.2638   -6.4640   -3.0479 C.ar      1 <0>        -0.2152
     25 C22        -0.0354   -5.3079   -2.3622 C.ar      1 <0>        -0.0188
     26 O3          0.2145   -7.7296   -5.0607 O.3       1 <0>        -0.3243
     27 C23         0.8940   -8.7539   -4.3319 C.3       1 <0>         0.0229
     28 C24         1.1475   -9.9508   -5.2507 C.3       1 <0>        -0.0009
     29 N1          2.0470   -9.5496   -6.3406 N.4       1 <0>        -0.3846
     30 C25         2.1642  -10.6491   -7.3060 C.3       1 <0>        -0.0070
     31 C26         3.0351  -10.2077   -8.4842 C.3       1 <0>        -0.1467
     32 C27         4.4265   -9.8279   -7.9693 C.3       1 <0>        -0.1392
     33 C28         4.2860   -8.7320   -6.9088 C.3       1 <0>        -0.1454
     34 C29         3.3687   -9.2281   -5.7890 C.3       1 <0>        -0.0135
     35 O4         -5.2584   -1.6764    3.0221 O.3       1 <0>        -0.4981
     36 H1         -6.1608   -1.6591   -1.3991 H         1 <0>         0.1289
     37 H2         -6.6842   -1.0290    0.9220 H         1 <0>         0.1330
     38 H3         -3.1895   -3.0920    2.2622 H         1 <0>         0.1301
     39 H4         -2.6707   -3.7142   -0.0621 H         1 <0>         0.1221
     40 H5         -3.5332   -4.0573   -2.3033 H         1 <0>         0.0924
     41 H6         -4.9889   -3.1983   -2.8614 H         1 <0>         0.1002
     42 H7          0.9116   -1.1972   -3.3418 H         1 <0>         0.1253
     43 H8          1.5972    0.8027   -4.5324 H         1 <0>         0.1374
     44 H9         -2.4824    1.8494   -5.2463 H         1 <0>         0.1428
     45 H10         0.1467    2.4399   -6.5785 H         1 <0>         0.3966
     46 H11        -1.5704   -3.5942   -4.8626 H         1 <0>         0.1429
     47 H12        -1.0204   -5.6580   -6.0771 H         1 <0>         0.1409
     48 H13         0.7764   -7.2713   -2.5460 H         1 <0>         0.1352
     49 H14         0.2426   -5.2080   -1.3234 H         1 <0>         0.1429
     50 H15         1.8457   -8.3690   -3.9657 H         1 <0>         0.0892
     51 H16         0.2799   -9.0675   -3.4877 H         1 <0>         0.1125
     52 H17         1.6069  -10.7570   -4.6787 H         1 <0>         0.1504
     53 H18         0.2014  -10.2950   -5.6684 H         1 <0>         0.1436
     54 H19         2.6208  -11.5114   -6.8203 H         1 <0>         0.1295
     55 H20         1.1729  -10.9203   -7.6691 H         1 <0>         0.1314
     56 H21         3.1224  -11.0259   -9.1990 H         1 <0>         0.1134
     57 H22         2.5793   -9.3454   -8.9709 H         1 <0>         0.0880
     58 H23         4.9033  -10.7031   -7.5280 H         1 <0>         0.0823
     59 H24         5.0331   -9.4591   -8.7964 H         1 <0>         0.0950
     60 H25         5.2673   -8.4956   -6.4975 H         1 <0>         0.1126
     61 H26         3.8561   -7.8392   -7.3628 H         1 <0>         0.0878
     62 H27         3.2666   -8.4504   -5.0322 H         1 <0>         0.1270
     63 H28         3.7996  -10.1208   -5.3356 H         1 <0>         0.1308
     64 H29        -5.8147   -2.3169    3.4861 H         1 <0>         0.3935
     65 H30         1.6702   -8.7364   -6.8041 H         1 <0>         0.4291
@<TRIPOS>BOND
     1    1    6 ar
     2    1    2 ar
     3    1   36 1
     4    2    3 ar
     5    2   37 1
     6    3    4 ar
     7    3   35 1
     8    4    5 ar
     9    4   38 1
    10    5    6 ar
    11    5   39 1
    12    6    7 1
    13    7    8 1
    14    7   40 1
    15    7   41 1
    16    8   16 1
    17    8    9 2
    18    9   10 1
    19    9   18 1
    20   10   15 ar
    21   10   11 ar
    22   11   12 ar
    23   11   42 1
    24   12   13 ar
    25   12   43 1
    26   13   14 ar
    27   13   17 1
    28   14   15 ar
    29   14   44 1
    30   15   16 1
    31   17   45 1
    32   18   19 2
    33   18   20 1
    34   20   25 ar
    35   20   21 ar
    36   21   22 ar
    37   21   46 1
    38   22   23 ar
    39   22   47 1
    40   23   24 ar
    41   23   26 1
    42   24   25 ar
    43   24   48 1
    44   25   49 1
    45   26   27 1
    46   27   28 1
    47   27   50 1
    48   27   51 1
    49   28   29 1
    50   28   52 1
    51   28   53 1
    52   29   34 1
    53   29   30 1
    54   29   65 1
    55   30   31 1
    56   30   54 1
    57   30   55 1
    58   31   32 1
    59   31   56 1
    60   31   57 1
    61   32   33 1
    62   32   58 1
    63   32   59 1
    64   33   34 1
    65   33   60 1
    66   33   61 1
    67   34   62 1
    68   34   63 1
    69   35   64 1
@<TRIPOS>MOLECULE
CHEMBL390448
   73    77     0     0     0
SMALL
USER_CHARGES

@<TRIPOS>ATOM
      1 C1         -0.5032    1.9855   -0.3337 C.3       1 <0>        -0.6576
      2 S1         -0.5810    0.1741   -0.3909 S.o2      1 <0>         2.4154
      3 O1          0.1400   -0.3421    0.7194 O.2       1 <0>        -0.9314
      4 O2         -1.9361   -0.2121   -0.5748 O.2       1 <0>        -0.9331
      5 C2          0.3381   -0.2189   -1.9047 C.3       1 <0>        -0.5722
      6 C3          0.3912   -1.7398   -2.0952 C.3       1 <0>        -0.1040
      7 C4          0.9997   -2.0362   -3.4674 C.3       1 <0>        -0.0707
      8 C5          2.2738   -1.2632   -3.6455 C.2       1 <0>        -0.0748
      9 C6          2.6112   -0.2308   -2.9089 C.2       1 <0>        -0.1350
     10 C7          1.7705    0.3059   -1.7873 C.3       1 <0>        -0.0732
     11 C8          3.2021   -1.6894   -4.7115 C.ar      1 <0>        -0.0471
     12 C9          3.9812   -2.8459   -4.5372 C.ar      1 <0>        -0.0949
     13 C10         4.8417   -3.2588   -5.5026 C.ar      1 <0>        -0.0916
     14 C11         4.9654   -2.5283   -6.6996 C.ar      1 <0>        -0.0271
     15 C12         5.8499   -2.9410   -7.7091 C.ar      1 <0>        -0.1326
     16 C13         5.9481   -2.2058   -8.8684 C.ar      1 <0>         0.1182
     17 C14         5.1771   -1.0535   -9.0508 C.ar      1 <0>        -0.1306
     18 C15         4.3130   -0.6323   -8.0888 C.ar      1 <0>        -0.0862
     19 C16         4.1876   -1.3593   -6.8929 C.ar      1 <0>        -0.0652
     20 C17         3.2955   -0.9470   -5.8837 C.ar      1 <0>         0.0929
     21 O3          2.5381    0.1660   -6.0518 O.3       1 <0>        -0.2414
     22 C18         3.0515    1.3555   -5.6399 C.ar      1 <0>         0.1134
     23 C19         4.3167    1.4060   -5.0727 C.ar      1 <0>        -0.1536
     24 C20         4.8383    2.6146   -4.6547 C.ar      1 <0>        -0.0995
     25 C21         4.0971    3.7778   -4.8015 C.ar      1 <0>         0.0787
     26 C22         2.8320    3.7275   -5.3680 C.ar      1 <0>        -0.1621
     27 C23         2.3126    2.5199   -5.7918 C.ar      1 <0>        -0.1082
     28 O4          4.6106    4.9676   -4.3894 O.3       1 <0>        -0.3276
     29 C24         3.7925    6.1250   -4.5711 C.3       1 <0>         0.0257
     30 C25         4.5327    7.3593   -4.0520 C.3       1 <0>        -0.0010
     31 N1          5.7443    7.5769   -4.8536 N.4       1 <0>        -0.3841
     32 C26         6.5331    8.6634   -4.2604 C.3       1 <0>        -0.0070
     33 C27         7.8354    8.8400   -5.0442 C.3       1 <0>        -0.1468
     34 C28         7.5061    9.1822   -6.5001 C.3       1 <0>        -0.1390
     35 C29         6.6213    8.0781   -7.0861 C.3       1 <0>        -0.1455
     36 C30         5.3640    7.9297   -6.2266 C.3       1 <0>        -0.0130
     37 O5          6.8039   -2.6035   -9.8459 O.3       1 <0>        -0.4977
     38 H1          0.5385    2.3032   -0.2881 H         1 <0>         0.1274
     39 H2         -0.9699    2.3976   -1.2284 H         1 <0>         0.1280
     40 H3         -1.0315    2.3441    0.5497 H         1 <0>         0.1328
     41 H4         -0.1523    0.2435   -2.7613 H         1 <0>         0.1401
     42 H5          1.0100   -2.1850   -1.3162 H         1 <0>         0.0878
     43 H6         -0.6173   -2.1505   -2.0453 H         1 <0>         0.0882
     44 H7          1.2101   -3.1028   -3.5466 H         1 <0>         0.0856
     45 H8          0.2920   -1.7508   -4.2458 H         1 <0>         0.0841
     46 H9          3.5485    0.2615   -3.1223 H         1 <0>         0.1120
     47 H10         1.7611    1.3950   -1.8317 H         1 <0>         0.0844
     48 H11         2.1946   -0.0112   -0.8346 H         1 <0>         0.0990
     49 H12         3.8945   -3.4137   -3.6226 H         1 <0>         0.1377
     50 H13         5.4331   -4.1499   -5.3518 H         1 <0>         0.1392
     51 H14         6.4495   -3.8294   -7.5766 H         1 <0>         0.1411
     52 H15         5.2694   -0.4904   -9.9678 H         1 <0>         0.1336
     53 H16         3.7243    0.2597   -8.2437 H         1 <0>         0.1309
     54 H17         4.8935    0.5002   -4.9578 H         1 <0>         0.1386
     55 H18         5.8231    2.6539   -4.2132 H         1 <0>         0.1362
     56 H19         2.2549    4.6332   -5.4819 H         1 <0>         0.1347
     57 H20         1.3295    2.4814   -6.2373 H         1 <0>         0.1406
     58 H21         3.5731    6.2521   -5.6312 H         1 <0>         0.0856
     59 H22         2.8605    6.0015   -4.0194 H         1 <0>         0.1084
     60 H23         3.8838    8.2317   -4.1301 H         1 <0>         0.1486
     61 H24         4.8098    7.2049   -3.0092 H         1 <0>         0.1423
     62 H25         5.9595    9.5896   -4.2962 H         1 <0>         0.1292
     63 H26         6.7639    8.4199   -3.2233 H         1 <0>         0.1310
     64 H27         8.4187    9.6484   -4.6033 H         1 <0>         0.1131
     65 H28         8.4099    7.9144   -5.0088 H         1 <0>         0.0880
     66 H29         6.9760   10.1338   -6.5400 H         1 <0>         0.0822
     67 H30         8.4291    9.2534   -7.0755 H         1 <0>         0.0948
     68 H31         6.3368    8.3419   -8.1047 H         1 <0>         0.1123
     69 H32         7.1706    7.1367   -7.0930 H         1 <0>         0.0878
     70 H33         4.7316    7.1446   -6.6412 H         1 <0>         0.1273
     71 H34         4.8153    8.8716   -6.2206 H         1 <0>         0.1302
     72 H35         6.4103   -3.2057  -10.4921 H         1 <0>         0.3973
     73 H36         6.2951    6.7316   -4.8649 H         1 <0>         0.4295
@<TRIPOS>BOND
     1    1    2 1
     2    1   38 1
     3    1   39 1
     4    1   40 1
     5    2    3 2
     6    2    4 2
     7    2    5 1
     8    5   10 1
     9    5    6 1
    10    5   41 1
    11    6    7 1
    12    6   42 1
    13    6   43 1
    14    7    8 1
    15    7   44 1
    16    7   45 1
    17    8    9 2
    18    8   11 1
    19    9   10 1
    20    9   46 1
    21   10   47 1
    22   10   48 1
    23   11   20 ar
    24   11   12 ar
    25   12   13 ar
    26   12   49 1
    27   13   14 ar
    28   13   50 1
    29   14   19 ar
    30   14   15 ar
    31   15   16 ar
    32   15   51 1
    33   16   17 ar
    34   16   37 1
    35   17   18 ar
    36   17   52 1
    37   18   19 ar
    38   18   53 1
    39   19   20 ar
    40   20   21 1
    41   21   22 1
    42   22   27 ar
    43   22   23 ar
    44   23   24 ar
    45   23   54 1
    46   24   25 ar
    47   24   55 1
    48   25   26 ar
    49   25   28 1
    50   26   27 ar
    51   26   56 1
    52   27   57 1
    53   28   29 1
    54   29   30 1
    55   29   58 1
    56   29   59 1
    57   30   31 1
    58   30   60 1
    59   30   61 1
    60   31   36 1
    61   31   32 1
    62   31   73 1
    63   32   33 1
    64   32   62 1
    65   32   63 1
    66   33   34 1
    67   33   64 1
    68   33   65 1
    69   34   35 1
    70   34   66 1
    71   34   67 1
    72   35   36 1
    73   35   68 1
    74   35   69 1
    75   36   70 1
    76   36   71 1
    77   37   72 1
@<TRIPOS>MOLECULE
CHEMBL390448__1
   73    77     0     0     0
SMALL
USER_CHARGES

@<TRIPOS>ATOM
      1 C1         -0.3951    1.2559    0.2048 C.3       1 <0>        -0.6574
      2 S1         -0.4626   -0.5553    0.1283 S.o2      1 <0>         2.4161
      3 O1          0.2619   -1.0791    1.2329 O.2       1 <0>        -0.9331
      4 O2         -1.8155   -0.9472   -0.0591 O.2       1 <0>        -0.9351
      5 C2          0.4581   -0.9268   -1.3899 C.3       1 <0>        -0.5739
      6 C3          0.3718   -2.4283   -1.6904 C.3       1 <0>        -0.1017
      7 C4          1.3080   -2.7441   -2.8587 C.3       1 <0>        -0.0710
      8 C5          1.0635   -1.7882   -3.9898 C.2       1 <0>        -0.0736
      9 C6          0.4237   -0.6498   -3.8591 C.2       1 <0>        -0.1360
     10 C7         -0.1555   -0.1607   -2.5637 C.3       1 <0>        -0.0731
     11 C8          1.5729   -2.1495   -5.3275 C.ar      1 <0>        -0.0491
     12 C9          2.9478   -2.0506   -5.6009 C.ar      1 <0>        -0.0944
     13 C10         3.4409   -2.3774   -6.8229 C.ar      1 <0>        -0.0926
     14 C11         2.5747   -2.8228   -7.8392 C.ar      1 <0>        -0.0268
     15 C12         3.0673   -3.1656   -9.1087 C.ar      1 <0>        -0.1333
     16 C13         2.1952   -3.5982  -10.0816 C.ar      1 <0>         0.1187
     17 C14         0.8255   -3.6997   -9.8190 C.ar      1 <0>        -0.1308
     18 C15         0.3229   -3.3740   -8.5980 C.ar      1 <0>        -0.0854
     19 C16         1.1850   -2.9287   -7.5816 C.ar      1 <0>        -0.0655
     20 C17         0.6898   -2.5909   -6.3070 C.ar      1 <0>         0.0953
     21 O3         -0.6364   -2.6908   -6.0387 O.3       1 <0>        -0.2413
     22 C18        -1.4197   -1.6060   -6.2790 C.ar      1 <0>         0.1128
     23 C19        -0.8583   -0.4442   -6.7889 C.ar      1 <0>        -0.1546
     24 C20        -1.6542    0.6577   -7.0334 C.ar      1 <0>        -0.1007
     25 C21        -3.0147    0.6031   -6.7687 C.ar      1 <0>         0.0790
     26 C22        -3.5761   -0.5582   -6.2584 C.ar      1 <0>        -0.1606
     27 C23        -2.7814   -1.6623   -6.0197 C.ar      1 <0>        -0.1056
     28 O4         -3.7981    1.6882   -7.0090 O.3       1 <0>        -0.3280
     29 C24        -5.1904    1.5615   -6.7132 C.3       1 <0>         0.0251
     30 C25        -5.9039    2.8734   -7.0459 C.3       1 <0>        -0.0008
     31 N1         -5.8074    3.1310   -8.4890 N.4       1 <0>        -0.3841
     32 C26        -6.3537    4.4609   -8.7847 C.3       1 <0>        -0.0070
     33 C27        -6.1818    4.7675  -10.2739 C.3       1 <0>        -0.1467
     34 C28        -6.9283    3.7129  -11.0960 C.3       1 <0>        -0.1390
     35 C29        -6.4016    2.3237  -10.7249 C.3       1 <0>        -0.1455
     36 C30        -6.5653    2.1076   -9.2189 C.3       1 <0>        -0.0131
     37 O5          2.6703   -3.9297  -11.3106 O.3       1 <0>        -0.4978
     38 H1          0.6447    1.5790    0.2534 H         1 <0>         0.1307
     39 H2         -0.8645    1.6748   -0.6853 H         1 <0>         0.1276
     40 H3         -0.9250    1.6020    1.0922 H         1 <0>         0.1328
     41 H4          1.5008   -0.6343   -1.2666 H         1 <0>         0.1431
     42 H5          0.6782   -2.9959   -0.8118 H         1 <0>         0.0866
     43 H6         -0.6515   -2.6895   -1.9602 H         1 <0>         0.0869
     44 H7          2.3425   -2.6545   -2.5272 H         1 <0>         0.0844
     45 H8          1.1274   -3.7630   -3.2013 H         1 <0>         0.0852
     46 H9          0.3072   -0.0287   -4.7348 H         1 <0>         0.1121
     47 H10        -1.2348   -0.3128   -2.5698 H         1 <0>         0.0935
     48 H11         0.0569    0.9025   -2.4517 H         1 <0>         0.0883
     49 H12         3.6212   -1.7096   -4.8286 H         1 <0>         0.1363
     50 H13         4.5003   -2.2950   -7.0158 H         1 <0>         0.1386
     51 H14         4.1236   -3.0898   -9.3204 H         1 <0>         0.1408
     52 H15         0.1579   -4.0409  -10.5963 H         1 <0>         0.1338
     53 H16        -0.7374   -3.4571   -8.4100 H         1 <0>         0.1315
     54 H17         0.2012   -0.4014   -6.9943 H         1 <0>         0.1378
     55 H18        -1.2172    1.5621   -7.4303 H         1 <0>         0.1355
     56 H19        -4.6353   -0.6005   -6.0521 H         1 <0>         0.1354
     57 H20        -3.2193   -2.5681   -5.6269 H         1 <0>         0.1417
     58 H21        -5.6166    0.7547   -7.3096 H         1 <0>         0.0858
     59 H22        -5.3179    1.3369   -5.6543 H         1 <0>         0.1097
     60 H23        -6.9530    2.7992   -6.7595 H         1 <0>         0.1488
     61 H24        -5.4348    3.6910   -6.4987 H         1 <0>         0.1422
     62 H25        -7.4131    4.4830   -8.5295 H         1 <0>         0.1292
     63 H26        -5.8235    5.2099   -8.1964 H         1 <0>         0.1308
     64 H27        -6.5896    5.7545  -10.4918 H         1 <0>         0.1129
     65 H28        -5.1226    4.7459  -10.5301 H         1 <0>         0.0878
     66 H29        -7.9949    3.7686  -10.8780 H         1 <0>         0.0822
     67 H30        -6.7623    3.8940  -12.1580 H         1 <0>         0.0946
     68 H31        -6.9665    1.5640  -11.2651 H         1 <0>         0.1122
     69 H32        -5.3469    2.2514  -10.9905 H         1 <0>         0.0877
     70 H33        -6.1915    1.1194   -8.9513 H         1 <0>         0.1276
     71 H34        -7.6203    2.1799   -8.9545 H         1 <0>         0.1303
     72 H35         2.9214   -4.8595  -11.3975 H         1 <0>         0.3973
     73 H36        -4.8394    3.0967   -8.7717 H         1 <0>         0.4293
@<TRIPOS>BOND
     1    1    2 1
     2    1   38 1
     3    1   39 1
     4    1   40 1
     5    2    3 2
     6    2    4 2
     7    2    5 1
     8    5   10 1
     9    5    6 1
    10    5   41 1
    11    6    7 1
    12    6   42 1
    13    6   43 1
    14    7    8 1
    15    7   44 1
    16    7   45 1
    17    8    9 2
    18    8   11 1
    19    9   10 1
    20    9   46 1
    21   10   47 1
    22   10   48 1
    23   11   20 ar
    24   11   12 ar
    25   12   13 ar
    26   12   49 1
    27   13   14 ar
    28   13   50 1
    29   14   19 ar
    30   14   15 ar
    31   15   16 ar
    32   15   51 1
    33   16   17 ar
    34   16   37 1
    35   17   18 ar
    36   17   52 1
    37   18   19 ar
    38   18   53 1
    39   19   20 ar
    40   20   21 1
    41   21   22 1
    42   22   27 ar
    43   22   23 ar
    44   23   24 ar
    45   23   54 1
    46   24   25 ar
    47   24   55 1
    48   25   26 ar
    49   25   28 1
    50   26   27 ar
    51   26   56 1
    52   27   57 1
    53   28   29 1
    54   29   30 1
    55   29   58 1
    56   29   59 1
    57   30   31 1
    58   30   60 1
    59   30   61 1
    60   31   36 1
    61   31   32 1
    62   31   73 1
    63   32   33 1
    64   32   62 1
    65   32   63 1
    66   33   34 1
    67   33   64 1
    68   33   65 1
    69   34   35 1
    70   34   66 1
    71   34   67 1
    72   35   36 1
    73   35   68 1
    74   35   69 1
    75   36   70 1
    76   36   71 1
    77   37   72 1
@<TRIPOS>MOLECULE
CHEMBL428926
   69    73     0     0     0
SMALL
USER_CHARGES

@<TRIPOS>ATOM
      1 C1          0.2092    1.2389    0.0011 C.ar      1 <0>        -0.1010
      2 C2          1.4323    1.8790   -0.0422 C.ar      1 <0>        -0.1053
      3 C3          2.6010    1.1365   -0.1287 C.ar      1 <0>         0.1032
      4 C4          2.5410   -0.2489   -0.1717 C.ar      1 <0>        -0.1514
      5 C5          1.3177   -0.8887   -0.1283 C.ar      1 <0>        -0.1622
      6 C6          0.1493   -0.1462   -0.0418 C.ar      1 <0>         0.0811
      7 O1         -1.0549   -0.7762    0.0013 O.3       1 <0>        -0.3269
      8 C7         -1.0420   -2.2044   -0.0470 C.3       1 <0>         0.0259
      9 C8         -2.4778   -2.7296    0.0119 C.3       1 <0>        -0.0008
     10 N1         -3.2129   -2.2802   -1.1779 N.4       1 <0>        -0.3840
     11 C9         -4.6271   -2.6507   -1.0464 C.3       1 <0>        -0.0071
     12 C10        -5.4124   -2.1141   -2.2451 C.3       1 <0>        -0.1467
     13 C11        -4.8428   -2.7165   -3.5327 C.3       1 <0>        -0.1391
     14 C12        -3.3500   -2.3867   -3.6221 C.3       1 <0>        -0.1456
     15 C13        -2.6411   -2.9132   -2.3725 C.3       1 <0>        -0.0130
     16 O2          3.8050    1.7664   -0.1719 O.3       1 <0>        -0.2449
     17 C14         4.9227    1.0001   -0.2565 C.ar      1 <0>         0.0922
     18 C15         5.5691    0.5539    0.9147 C.ar      1 <0>        -0.0650
     19 C16         5.0789    0.8869    2.1881 C.ar      1 <0>        -0.0864
     20 C17         5.7257    0.4402    3.2983 C.ar      1 <0>        -0.1298
     21 C18         6.8756   -0.3480    3.1913 C.ar      1 <0>         0.1207
     22 C19         7.3792   -0.6897    1.9685 C.ar      1 <0>        -0.1341
     23 C20         6.7338   -0.2450    0.8026 C.ar      1 <0>        -0.0282
     24 C21         7.2236   -0.5791   -0.4721 C.ar      1 <0>        -0.0883
     25 C22         6.5786   -0.1348   -1.5853 C.ar      1 <0>        -0.1042
     26 C23         5.4310    0.6475   -1.4864 C.ar      1 <0>        -0.0730
     27 C24         4.7396    1.1171   -2.7404 C.3       1 <0>        -0.0715
     28 C25         4.2707   -0.0951   -3.5397 C.3       1 <0>        -0.1032
     29 C26         3.3386    0.3521   -4.6687 C.3       1 <0>        -0.6047
     30 S1          4.2690    1.4131   -5.8138 S.o2      1 <0>         2.4108
     31 O3          3.3487    2.0465   -6.6919 O.2       1 <0>        -0.9389
     32 O4          5.3405    0.6569   -6.3609 O.2       1 <0>        -0.9296
     33 C27         4.9562    2.6681   -4.6934 C.3       1 <0>        -0.6018
     34 C28         5.7082    1.9631   -3.5616 C.3       1 <0>        -0.1043
     35 O5          7.5005   -0.7792    4.3182 O.3       1 <0>        -0.4963
     36 H1         -0.7004    1.8168    0.0730 H         1 <0>         0.1423
     37 H2          1.4789    2.9575   -0.0092 H         1 <0>         0.1471
     38 H3          3.4507   -0.8270   -0.2394 H         1 <0>         0.1357
     39 H4          1.2709   -1.9671   -0.1621 H         1 <0>         0.1300
     40 H5         -0.5730   -2.5323   -0.9747 H         1 <0>         0.0851
     41 H6         -0.4784   -2.5915    0.8018 H         1 <0>         0.1081
     42 H7         -2.4652   -3.8192    0.0412 H         1 <0>         0.1486
     43 H8         -2.9679   -2.3478    0.9075 H         1 <0>         0.1428
     44 H9         -4.7160   -3.7365   -1.0110 H         1 <0>         0.1291
     45 H10        -5.0302   -2.2240   -0.1280 H         1 <0>         0.1312
     46 H11        -6.4618   -2.3918   -2.1465 H         1 <0>         0.1132
     47 H12        -5.3244   -1.0283   -2.2813 H         1 <0>         0.0882
     48 H13        -4.9769   -3.7982   -3.5194 H         1 <0>         0.0821
     49 H14        -5.3616   -2.2943   -4.3933 H         1 <0>         0.0951
     50 H15        -2.9253   -2.8591   -4.5078 H         1 <0>         0.1124
     51 H16        -3.2192   -1.3065   -3.6869 H         1 <0>         0.0882
     52 H17        -1.5781   -2.6802   -2.4330 H         1 <0>         0.1267
     53 H18        -2.7723   -3.9934   -2.3088 H         1 <0>         0.1301
     54 H19         4.1921    1.4955    2.2854 H         1 <0>         0.1326
     55 H20         5.3459    0.6981    4.2759 H         1 <0>         0.1346
     56 H21         8.2685   -1.2984    1.8983 H         1 <0>         0.1410
     57 H22         8.1109   -1.1874   -0.5679 H         1 <0>         0.1392
     58 H23         6.9615   -0.3955   -2.5609 H         1 <0>         0.1387
     59 H24         3.8754    1.7231   -2.4683 H         1 <0>         0.0965
     60 H25         5.1353   -0.6048   -3.9648 H         1 <0>         0.0918
     61 H26         3.7374   -0.7794   -2.8798 H         1 <0>         0.0861
     62 H27         2.9658   -0.5222   -5.2023 H         1 <0>         0.1369
     63 H28         2.5015    0.9116   -4.2511 H         1 <0>         0.1312
     64 H29         5.6433    3.3113   -5.2431 H         1 <0>         0.1423
     65 H30         4.1469    3.2674   -4.2762 H         1 <0>         0.1351
     66 H31         6.1736    2.7086   -2.9170 H         1 <0>         0.0954
     67 H32         6.4801    1.3206   -3.9853 H         1 <0>         0.0911
     68 H33         7.1819   -1.6326    4.6427 H         1 <0>         0.3954
     69 H34        -3.1363   -1.2775   -1.2605 H         1 <0>         0.4295
@<TRIPOS>BOND
     1    1    6 ar
     2    1    2 ar
     3    1   36 1
     4    2    3 ar
     5    2   37 1
     6    3    4 ar
     7    3   16 1
     8    4    5 ar
     9    4   38 1
    10    5    6 ar
    11    5   39 1
    12    6    7 1
    13    7    8 1
    14    8    9 1
    15    8   40 1
    16    8   41 1
    17    9   10 1
    18    9   42 1
    19    9   43 1
    20   10   15 1
    21   10   11 1
    22   10   69 1
    23   11   12 1
    24   11   44 1
    25   11   45 1
    26   12   13 1
    27   12   46 1
    28   12   47 1
    29   13   14 1
    30   13   48 1
    31   13   49 1
    32   14   15 1
    33   14   50 1
    34   14   51 1
    35   15   52 1
    36   15   53 1
    37   16   17 1
    38   17   26 ar
    39   17   18 ar
    40   18   23 ar
    41   18   19 ar
    42   19   20 ar
    43   19   54 1
    44   20   21 ar
    45   20   55 1
    46   21   22 ar
    47   21   35 1
    48   22   23 ar
    49   22   56 1
    50   23   24 ar
    51   24   25 ar
    52   24   57 1
    53   25   26 ar
    54   25   58 1
    55   26   27 1
    56   27   34 1
    57   27   28 1
    58   27   59 1
    59   28   29 1
    60   28   60 1
    61   28   61 1
    62   29   30 1
    63   29   62 1
    64   29   63 1
    65   30   31 2
    66   30   32 2
    67   30   33 1
    68   33   34 1
    69   33   64 1
    70   33   65 1
    71   34   66 1
    72   34   67 1
    73   35   68 1
@<TRIPOS>MOLECULE
CHEMBL244207
   67    71     0     0     0
SMALL
USER_CHARGES

@<TRIPOS>ATOM
      1 C1          0.2092    1.2390    0.0011 C.ar      1 <0>        -0.0997
      2 C2          1.4323    1.8790   -0.0422 C.ar      1 <0>        -0.1000
      3 C3          2.6010    1.1365   -0.1288 C.ar      1 <0>         0.1102
      4 C4          2.5409   -0.2490   -0.1718 C.ar      1 <0>        -0.1591
      5 C5          1.3177   -0.8887   -0.1284 C.ar      1 <0>        -0.1636
      6 C6          0.1493   -0.1462   -0.0418 C.ar      1 <0>         0.0791
      7 O1         -1.0549   -0.7762    0.0013 O.3       1 <0>        -0.3266
      8 C7         -1.0420   -2.2043   -0.0470 C.3       1 <0>         0.0257
      9 C8         -2.4778   -2.7296    0.0121 C.3       1 <0>        -0.0007
     10 N1         -3.2130   -2.2802   -1.1777 N.4       1 <0>        -0.3842
     11 C9         -4.6271   -2.6507   -1.0462 C.3       1 <0>        -0.0071
     12 C10        -5.4125   -2.1141   -2.2448 C.3       1 <0>        -0.1469
     13 C11        -4.8430   -2.7165   -3.5324 C.3       1 <0>        -0.1389
     14 C12        -3.3503   -2.3866   -3.6219 C.3       1 <0>        -0.1460
     15 C13        -2.6413   -2.9131   -2.3723 C.3       1 <0>        -0.0132
     16 O2          3.8050    1.7664   -0.1720 O.3       1 <0>        -0.2398
     17 C14         4.9218    1.0006   -0.2566 C.ar      1 <0>         0.1033
     18 C15         5.5683    0.5544    0.9126 C.ar      1 <0>        -0.0673
     19 C16         5.0749    0.8890    2.1850 C.ar      1 <0>        -0.0835
     20 C17         5.7166    0.4458    3.2992 C.ar      1 <0>        -0.1302
     21 C18         6.8673   -0.3423    3.1990 C.ar      1 <0>         0.1228
     22 C19         7.3775   -0.6880    1.9684 C.ar      1 <0>        -0.1359
     23 C20         6.7338   -0.2445    0.8019 C.ar      1 <0>        -0.0243
     24 C21         7.2304   -0.5820   -0.4714 C.ar      1 <0>        -0.0917
     25 C22         6.5963   -0.1439   -1.5890 C.ar      1 <0>        -0.0949
     26 C23         5.4361    0.6439   -1.4985 C.ar      1 <0>        -0.0622
     27 C24         4.7622    1.1009   -2.7300 C.2       1 <0>        -0.0784
     28 C25         3.6592    0.4844   -3.0172 C.2       1 <0>        -0.1266
     29 C26         2.7812    0.7200   -4.2110 C.3       1 <0>        -0.5692
     30 S1          3.1697    2.3445   -4.9290 S.o2      1 <0>         2.4094
     31 O3          2.7259    2.3645   -6.2788 O.2       1 <0>        -0.9342
     32 O4          2.7260    3.3561   -4.0351 O.2       1 <0>        -0.9210
     33 C27         4.9897    2.3060   -4.9129 C.3       1 <0>        -0.5976
     34 C28         5.4478    2.2067   -3.4559 C.3       1 <0>        -0.0722
     35 O5          7.4887   -0.7710    4.3287 O.3       1 <0>        -0.4953
     36 H1         -0.7004    1.8168    0.0730 H         1 <0>         0.1432
     37 H2          1.4789    2.9575   -0.0091 H         1 <0>         0.1498
     38 H3          3.4506   -0.8271   -0.2396 H         1 <0>         0.1348
     39 H4          1.2709   -1.9672   -0.1619 H         1 <0>         0.1300
     40 H5         -0.5730   -2.5323   -0.9746 H         1 <0>         0.0846
     41 H6         -0.4783   -2.5915    0.8018 H         1 <0>         0.1079
     42 H7         -2.4652   -3.8191    0.0413 H         1 <0>         0.1483
     43 H8         -2.9679   -2.3477    0.9077 H         1 <0>         0.1429
     44 H9         -4.7160   -3.7365   -1.0108 H         1 <0>         0.1289
     45 H10        -5.0302   -2.2239   -0.1277 H         1 <0>         0.1313
     46 H11        -6.4620   -2.3917   -2.1461 H         1 <0>         0.1132
     47 H12        -5.3245   -1.0282   -2.2810 H         1 <0>         0.0884
     48 H13        -4.9771   -3.7981   -3.5192 H         1 <0>         0.0819
     49 H14        -5.3619   -2.2942   -4.3930 H         1 <0>         0.0951
     50 H15        -2.9256   -2.8591   -4.5077 H         1 <0>         0.1123
     51 H16        -3.2194   -1.3064   -3.6867 H         1 <0>         0.0885
     52 H17        -1.5782   -2.6801   -2.4329 H         1 <0>         0.1267
     53 H18        -2.7725   -3.9933   -2.3086 H         1 <0>         0.1299
     54 H19         4.1875    1.4976    2.2780 H         1 <0>         0.1341
     55 H20         5.3325    0.7063    4.2744 H         1 <0>         0.1358
     56 H21         8.2672   -1.2965    1.9004 H         1 <0>         0.1415
     57 H22         8.1182   -1.1906   -0.5594 H         1 <0>         0.1399
     58 H23         6.9860   -0.4085   -2.5608 H         1 <0>         0.1381
     59 H24         3.3383   -0.2796   -2.3246 H         1 <0>         0.1234
     60 H25         2.9594   -0.0581   -4.9532 H         1 <0>         0.1481
     61 H26         1.7356    0.6984   -3.9038 H         1 <0>         0.1406
     62 H27         5.3445    1.4413   -5.4737 H         1 <0>         0.1379
     63 H28         5.3811    3.2204   -5.3590 H         1 <0>         0.1454
     64 H29         5.2356    3.1481   -2.9490 H         1 <0>         0.1074
     65 H30         6.5232    2.0302   -3.4360 H         1 <0>         0.1042
     66 H31         7.1693   -1.6239    4.6537 H         1 <0>         0.3958
     67 H32        -3.1363   -1.2775   -1.2603 H         1 <0>         0.4298
@<TRIPOS>BOND
     1    1    6 ar
     2    1    2 ar
     3    1   36 1
     4    2    3 ar
     5    2   37 1
     6    3    4 ar
     7    3   16 1
     8    4    5 ar
     9    4   38 1
    10    5    6 ar
    11    5   39 1
    12    6    7 1
    13    7    8 1
    14    8    9 1
    15    8   40 1
    16    8   41 1
    17    9   10 1
    18    9   42 1
    19    9   43 1
    20   10   15 1
    21   10   11 1
    22   10   67 1
    23   11   12 1
    24   11   44 1
    25   11   45 1
    26   12   13 1
    27   12   46 1
    28   12   47 1
    29   13   14 1
    30   13   48 1
    31   13   49 1
    32   14   15 1
    33   14   50 1
    34   14   51 1
    35   15   52 1
    36   15   53 1
    37   16   17 1
    38   17   26 ar
    39   17   18 ar
    40   18   23 ar
    41   18   19 ar
    42   19   20 ar
    43   19   54 1
    44   20   21 ar
    45   20   55 1
    46   21   22 ar
    47   21   35 1
    48   22   23 ar
    49   22   56 1
    50   23   24 ar
    51   24   25 ar
    52   24   57 1
    53   25   26 ar
    54   25   58 1
    55   26   27 1
    56   27   34 1
    57   27   28 2
    58   28   29 1
    59   28   59 1
    60   29   30 1
    61   29   60 1
    62   29   61 1
    63   30   31 2
    64   30   32 2
    65   30   33 1
    66   33   34 1
    67   33   62 1
    68   33   63 1
    69   34   64 1
    70   34   65 1
    71   35   66 1
@<TRIPOS>MOLECULE
CHEMBL184974
   73    78     0     0     0
SMALL
USER_CHARGES

@<TRIPOS>ATOM
      1 C1          0.3115   -0.1272   -0.8807 C.ar      1 <0>        -0.0873
      2 C2          1.4368    0.6646   -1.0044 C.ar      1 <0>        -0.1389
      3 C3          1.4212    1.9687   -0.5314 C.ar      1 <0>         0.1158
      4 C4          0.2751    2.4743    0.0647 C.ar      1 <0>        -0.1461
      5 C5         -0.8475    1.6784    0.1860 C.ar      1 <0>        -0.0836
      6 C6         -0.8295    0.3790   -0.2861 C.ar      1 <0>        -0.0898
      7 C7         -2.0557   -0.4869   -0.1528 C.3       1 <0>        -0.0640
      8 H1         -2.9256    0.1320    0.0669 H         1 <0>         0.1382
      9 C8         -1.8497   -1.5194    0.9680 C.3       1 <0>         0.1497
     10 H2         -2.6846   -2.2201    0.9761 H         1 <0>         0.0962
     11 O1         -0.6405   -2.2245    0.7323 O.3       1 <0>        -0.3049
     12 C9         -0.4347   -2.9367   -0.4004 C.ar      1 <0>         0.1212
     13 C10         0.5013   -3.9672   -0.3529 C.ar      1 <0>        -0.1139
     14 C11         0.7726   -4.7232   -1.4746 C.ar      1 <0>        -0.1061
     15 C12         0.1139   -4.4642   -2.6676 C.ar      1 <0>         0.0985
     16 C13        -0.8237   -3.4458   -2.7253 C.ar      1 <0>        -0.0901
     17 C14        -1.1022   -2.6891   -1.5947 C.ar      1 <0>        -0.1477
     18 S1         -2.3289   -1.4182   -1.6930 S.3       1 <0>        -0.0841
     19 O2          0.3872   -5.2053   -3.7744 O.3       1 <0>        -0.4915
     20 C15        -1.7721   -0.8124    2.2966 C.ar      1 <0>        -0.1046
     21 C16        -0.5948   -0.2001    2.6848 C.ar      1 <0>        -0.0346
     22 C17        -0.5209    0.4483    3.9024 C.ar      1 <0>        -0.1416
     23 C18        -1.6295    0.4850    4.7357 C.ar      1 <0>         0.1247
     24 C19        -2.8098   -0.1298    4.3437 C.ar      1 <0>        -0.2036
     25 C20        -2.8800   -0.7724    3.1228 C.ar      1 <0>        -0.0588
     26 O3         -1.5592    1.1218    5.9343 O.3       1 <0>        -0.3266
     27 C21        -2.7392    1.1196    6.7403 C.3       1 <0>         0.0253
     28 C22        -2.4698    1.8785    8.0411 C.3       1 <0>        -0.0013
     29 N1         -2.1866    3.2874    7.7364 N.4       1 <0>        -0.3826
     30 C23        -1.7748    3.9785    8.9641 C.3       1 <0>        -0.0089
     31 C24        -1.3927    5.4241    8.6355 C.3       1 <0>        -0.1343
     32 C25        -2.5934    6.1334    8.0120 C.3       1 <0>        -0.0742
     33 C26        -2.2027    7.5666    7.6086 C.3       1 <0>        -0.1156
     34 C27        -3.4664    8.4059    7.9246 C.3       1 <0>        -0.1283
     35 C28        -3.9889    7.7604    9.2324 C.3       1 <0>        -0.1271
     36 C29        -3.7275    6.2513    9.0406 C.3       1 <0>        -0.1241
     37 C30        -3.0773    5.3625    6.7851 C.3       1 <0>        -0.1318
     38 C31        -3.3923    3.9193    7.1874 C.3       1 <0>        -0.0145
     39 O4          2.5270    2.7495   -0.6516 O.3       1 <0>        -0.4999
     40 H3          0.3217   -1.1411   -1.2527 H         1 <0>         0.1322
     41 H4          2.3279    0.2686   -1.4686 H         1 <0>         0.1315
     42 H5          0.2606    3.4891    0.4340 H         1 <0>         0.1293
     43 H6         -1.7400    2.0715    0.6501 H         1 <0>         0.1234
     44 H7          1.0201   -4.1761    0.5710 H         1 <0>         0.1413
     45 H8          1.5006   -5.5193   -1.4237 H         1 <0>         0.1429
     46 H9         -1.3389   -3.2397   -3.6518 H         1 <0>         0.1404
     47 H10        -0.1681   -5.9914   -3.8684 H         1 <0>         0.3946
     48 H11         0.2679   -0.2290    2.0357 H         1 <0>         0.1387
     49 H12         0.3991    0.9258    4.2055 H         1 <0>         0.1351
     50 H13        -3.6741   -0.1026    4.9907 H         1 <0>         0.1313
     51 H14        -3.7999   -1.2473    2.8153 H         1 <0>         0.1346
     52 H15        -3.5506    1.6049    6.1979 H         1 <0>         0.0867
     53 H16        -3.0199    0.0918    6.9707 H         1 <0>         0.1100
     54 H17        -3.3457    1.8154    8.6867 H         1 <0>         0.1489
     55 H18        -1.6119    1.4370    8.5484 H         1 <0>         0.1430
     56 H19        -2.5993    3.9740    9.6771 H         1 <0>         0.1297
     57 H20        -0.9166    3.4660    9.3988 H         1 <0>         0.1320
     58 H21        -1.0998    5.9400    9.5500 H         1 <0>         0.1140
     59 H22        -0.5608    5.4296    7.9313 H         1 <0>         0.0898
     60 H23        -1.3563    7.9128    8.2017 H         1 <0>         0.0770
     61 H24        -1.9694    7.6136    6.5449 H         1 <0>         0.0736
     62 H25        -3.2047    9.4514    8.0878 H         1 <0>         0.0744
     63 H26        -4.2026    8.3111    7.1264 H         1 <0>         0.0697
     64 H27        -3.4345    8.1373   10.0919 H         1 <0>         0.0709
     65 H28        -5.0555    7.9506    9.3521 H         1 <0>         0.0716
     66 H29        -4.6256    5.7611    8.6647 H         1 <0>         0.0691
     67 H30        -3.4232    5.8015    9.9857 H         1 <0>         0.0697
     68 H31        -3.9767    5.8347    6.3899 H         1 <0>         0.1130
     69 H32        -2.2985    5.3661    6.0226 H         1 <0>         0.0894
     70 H33        -3.7270    3.3632    6.3117 H         1 <0>         0.1278
     71 H34        -4.1792    3.9162    7.9416 H         1 <0>         0.1306
     72 H35         2.5624    3.2576   -1.4736 H         1 <0>         0.3954
     73 H36        -1.4418    3.3403    7.0577 H         1 <0>         0.4292
@<TRIPOS>BOND
     1    1    6 ar
     2    1    2 ar
     3    1   40 1
     4    2    3 ar
     5    2   41 1
     6    3    4 ar
     7    3   39 1
     8    4    5 ar
     9    4   42 1
    10    5    6 ar
    11    5   43 1
    12    6    7 1
    13    7    8 1
    14    7   18 1
    15    7    9 1
    16    9   10 1
    17    9   11 1
    18    9   20 1
    19   11   12 1
    20   12   17 ar
    21   12   13 ar
    22   13   14 ar
    23   13   44 1
    24   14   15 ar
    25   14   45 1
    26   15   16 ar
    27   15   19 1
    28   16   17 ar
    29   16   46 1
    30   17   18 1
    31   19   47 1
    32   20   25 ar
    33   20   21 ar
    34   21   22 ar
    35   21   48 1
    36   22   23 ar
    37   22   49 1
    38   23   24 ar
    39   23   26 1
    40   24   25 ar
    41   24   50 1
    42   25   51 1
    43   26   27 1
    44   27   28 1
    45   27   52 1
    46   27   53 1
    47   28   29 1
    48   28   54 1
    49   28   55 1
    50   29   38 1
    51   29   30 1
    52   29   73 1
    53   30   31 1
    54   30   56 1
    55   30   57 1
    56   31   32 1
    57   31   58 1
    58   31   59 1
    59   32   36 1
    60   32   33 1
    61   32   37 1
    62   33   34 1
    63   33   60 1
    64   33   61 1
    65   34   35 1
    66   34   62 1
    67   34   63 1
    68   35   36 1
    69   35   64 1
    70   35   65 1
    71   36   66 1
    72   36   67 1
    73   37   38 1
    74   37   68 1
    75   37   69 1
    76   38   70 1
    77   38   71 1
    78   39   72 1
@<TRIPOS>MOLECULE
CHEMBL390021
   63    67     0     0     0
SMALL
USER_CHARGES

@<TRIPOS>ATOM
      1 C1         -0.1301    1.3207    0.7506 C.ar      1 <0>        -0.0850
      2 C2          1.0439    2.0452    0.7058 C.ar      1 <0>        -0.1095
      3 C3          2.2652    1.3837    0.5872 C.ar      1 <0>        -0.0219
      4 C4          2.2942   -0.0081    0.5143 C.ar      1 <0>        -0.1527
      5 C5          1.1129   -0.7240    0.5600 C.ar      1 <0>         0.1005
      6 C6         -0.0976   -0.0598    0.6781 C.ar      1 <0>        -0.1471
      7 F1          1.1383   -2.0729    0.4896 F         1 <0>        -0.1399
      8 C7          3.5287    2.1576    0.5382 C.ar      1 <0>        -0.0452
      9 C8          3.6495    3.2385   -0.3485 C.ar      1 <0>        -0.0926
     10 C9          4.7960    3.9638   -0.4131 C.ar      1 <0>        -0.0905
     11 C10         5.8860    3.6372    0.4150 C.ar      1 <0>        -0.0246
     12 C11         7.0798    4.3747    0.3633 C.ar      1 <0>        -0.1336
     13 C12         8.1211    4.0343    1.1797 C.ar      1 <0>         0.1215
     14 C13         8.0144    2.9596    2.0677 C.ar      1 <0>        -0.1307
     15 C14         6.8716    2.2254    2.1413 C.ar      1 <0>        -0.0843
     16 C15         5.7809    2.5484    1.3162 C.ar      1 <0>        -0.0655
     17 C16         4.5820    1.8111    1.3741 C.ar      1 <0>         0.0997
     18 O1          4.4595    0.7689    2.2344 O.3       1 <0>        -0.2418
     19 C17         4.8247   -0.4656    1.7977 C.ar      1 <0>         0.1088
     20 C18         5.3109   -0.6297    0.5087 C.ar      1 <0>        -0.1594
     21 C19         5.6819   -1.8840    0.0652 C.ar      1 <0>        -0.0987
     22 C20         5.5679   -2.9796    0.9082 C.ar      1 <0>         0.0818
     23 C21         5.0814   -2.8157    2.1968 C.ar      1 <0>        -0.1585
     24 C22         4.7166   -1.5605    2.6429 C.ar      1 <0>        -0.1066
     25 O2          5.9328   -4.2145    0.4712 O.3       1 <0>        -0.3267
     26 C23         5.7889   -5.2974    1.3924 C.3       1 <0>         0.0249
     27 C24         6.2459   -6.5971    0.7271 C.3       1 <0>        -0.0007
     28 N1          7.6777   -6.5081    0.4107 N.4       1 <0>        -0.3841
     29 C25         8.0801   -7.6874   -0.3650 C.3       1 <0>        -0.0071
     30 C26         9.5512   -7.5609   -0.7665 C.3       1 <0>        -0.1467
     31 C27        10.4124   -7.4602    0.4958 C.3       1 <0>        -0.1388
     32 C28         9.9351   -6.2706    1.3338 C.3       1 <0>        -0.1454
     33 C29         8.4497   -6.4449    1.6575 C.3       1 <0>        -0.0131
     34 O3          9.2754    4.7491    1.1277 O.3       1 <0>        -0.4982
     35 H1         -1.0759    1.8330    0.8470 H         1 <0>         0.1400
     36 H2          1.0164    3.1234    0.7623 H         1 <0>         0.1352
     37 H3          3.2376   -0.5257    0.4219 H         1 <0>         0.1402
     38 H4         -1.0188   -0.6223    0.7139 H         1 <0>         0.1386
     39 H5          2.8191    3.4971   -0.9888 H         1 <0>         0.1396
     40 H6          4.8714    4.7926   -1.1015 H         1 <0>         0.1414
     41 H7          7.1746    5.2068   -0.3187 H         1 <0>         0.1417
     42 H8          8.8507    2.7088    2.7035 H         1 <0>         0.1344
     43 H9          6.8027    1.3975    2.8314 H         1 <0>         0.1326
     44 H10         5.3990    0.2232   -0.1479 H         1 <0>         0.1412
     45 H11         6.0604   -2.0118   -0.9383 H         1 <0>         0.1384
     46 H12         4.9921   -3.6690    2.8528 H         1 <0>         0.1366
     47 H13         4.3424   -1.4322    3.6478 H         1 <0>         0.1428
     48 H14         6.3992   -5.1069    2.2752 H         1 <0>         0.0860
     49 H15         4.7432   -5.3878    1.6863 H         1 <0>         0.1096
     50 H16         6.0751   -7.4325    1.4061 H         1 <0>         0.1489
     51 H17         5.6800   -6.7537   -0.1912 H         1 <0>         0.1426
     52 H18         7.9450   -8.5836    0.2406 H         1 <0>         0.1291
     53 H19         7.4642   -7.7596   -1.2614 H         1 <0>         0.1310
     54 H20         9.8485   -8.4383   -1.3409 H         1 <0>         0.1129
     55 H21         9.6874   -6.6652   -1.3725 H         1 <0>         0.0879
     56 H22        10.3161   -8.3773    1.0769 H         1 <0>         0.0821
     57 H23        11.4552   -7.3131    0.2148 H         1 <0>         0.0945
     58 H24        10.5068   -6.2256    2.2608 H         1 <0>         0.1121
     59 H25        10.0792   -5.3480    0.7715 H         1 <0>         0.0878
     60 H26         8.1067   -5.5997    2.2543 H         1 <0>         0.1275
     61 H27         8.3068   -7.3675    2.2200 H         1 <0>         0.1301
     62 H28         9.3000    5.5013    1.7349 H         1 <0>         0.3975
     63 H29         7.8499   -5.6757   -0.1329 H         1 <0>         0.4295
@<TRIPOS>BOND
     1    1    6 ar
     2    1    2 ar
     3    1   35 1
     4    2    3 ar
     5    2   36 1
     6    3    4 ar
     7    3    8 1
     8    4    5 ar
     9    4   37 1
    10    5    6 ar
    11    5    7 1
    12    6   38 1
    13    8   17 ar
    14    8    9 ar
    15    9   10 ar
    16    9   39 1
    17   10   11 ar
    18   10   40 1
    19   11   16 ar
    20   11   12 ar
    21   12   13 ar
    22   12   41 1
    23   13   14 ar
    24   13   34 1
    25   14   15 ar
    26   14   42 1
    27   15   16 ar
    28   15   43 1
    29   16   17 ar
    30   17   18 1
    31   18   19 1
    32   19   24 ar
    33   19   20 ar
    34   20   21 ar
    35   20   44 1
    36   21   22 ar
    37   21   45 1
    38   22   23 ar
    39   22   25 1
    40   23   24 ar
    41   23   46 1
    42   24   47 1
    43   25   26 1
    44   26   27 1
    45   26   48 1
    46   26   49 1
    47   27   28 1
    48   27   50 1
    49   27   51 1
    50   28   33 1
    51   28   29 1
    52   28   63 1
    53   29   30 1
    54   29   52 1
    55   29   53 1
    56   30   31 1
    57   30   54 1
    58   30   55 1
    59   31   32 1
    60   31   56 1
    61   31   57 1
    62   32   33 1
    63   32   58 1
    64   32   59 1
    65   33   60 1
    66   33   61 1
    67   34   62 1
@<TRIPOS>MOLECULE
CHEMBL309677
   47    51     0     0     0
SMALL
USER_CHARGES

@<TRIPOS>ATOM
      1 C1          0.1963    1.8796    0.1303 C.ar      1 <0>        -0.1263
      2 C2          1.4220    2.5120    0.2237 C.ar      1 <0>        -0.1178
      3 C3          2.5874    1.7693    0.1887 C.ar      1 <0>        -0.1170
      4 C4          2.5271    0.3942    0.0607 C.ar      1 <0>        -0.0779
      5 C5          1.3014   -0.2382   -0.0318 C.ar      1 <0>        -0.1195
      6 C6          0.1360    0.5046    0.0018 C.ar      1 <0>        -0.1179
      7 C7          3.7975   -0.4154    0.0215 C.3       1 <0>        -0.0844
      8 C8          4.1877   -0.8212    1.4442 C.3       1 <0>        -0.0936
      9 C9          5.4028   -1.7497    1.3945 C.3       1 <0>        -0.0437
     10 C10         5.8016   -2.1868    2.8064 C.3       1 <0>         0.1978
     11 C11         4.8533   -1.7848    3.9111 C.2       1 <0>        -0.1870
     12 C12         5.3031   -1.1439    4.9968 C.2       1 <0>        -0.0917
     13 C13         6.6261   -0.6807    5.2485 C.2       1 <0>        -0.1753
     14 C14         7.4690   -0.6301    4.1628 C.2       1 <0>         0.1590
     15 N1          6.9347   -1.2826    3.0450 N.pl3     1 <0>        -0.5875
     16 C15         7.4906   -0.7797    1.9102 C.2       1 <0>         0.1194
     17 C16         6.6266   -1.0006    0.8775 C.2       1 <0>        -0.1262
     18 C17         6.8410   -0.5826   -0.5125 C.ar      1 <0>        -0.0217
     19 C18         6.9556   -1.5429   -1.5261 C.ar      1 <0>        -0.0897
     20 C19         7.1562   -1.1442   -2.8289 C.ar      1 <0>        -0.1421
     21 C20         7.2451    0.2073   -3.1391 C.ar      1 <0>         0.1053
     22 C21         7.1327    1.1646   -2.1382 C.ar      1 <0>        -0.1423
     23 C22         6.9261    0.7787   -0.8324 C.ar      1 <0>        -0.0896
     24 O1          7.4432    0.5944   -4.4263 O.3       1 <0>        -0.5003
     25 C23         8.7144   -0.2076    2.3575 C.2       1 <0>        -0.0889
     26 C24         8.6927   -0.1526    3.7299 C.2       1 <0>        -0.1053
     27 H1         -0.7142    2.4595    0.1621 H         1 <0>         0.1202
     28 H2          1.4692    3.5863    0.3237 H         1 <0>         0.1204
     29 H3          3.5450    2.2634    0.2610 H         1 <0>         0.1180
     30 H4          1.2542   -1.3125   -0.1322 H         1 <0>         0.1199
     31 H5         -0.8216    0.0105   -0.0709 H         1 <0>         0.1208
     32 H6          3.6400   -1.3098   -0.5812 H         1 <0>         0.0703
     33 H7          4.5961    0.1827   -0.4176 H         1 <0>         0.0805
     34 H8          4.4346    0.0698    2.0214 H         1 <0>         0.0656
     35 H9          3.3531   -1.3400    1.9158 H         1 <0>         0.0706
     36 H10         5.1938   -2.6173    0.7688 H         1 <0>         0.0973
     37 H11         6.0812   -3.2394    2.8509 H         1 <0>         0.0946
     38 H12         3.8020   -2.0165    3.8241 H         1 <0>         0.1243
     39 H13         4.5768   -0.9554    5.7736 H         1 <0>         0.1093
     40 H14         6.9491   -0.3854    6.2358 H         1 <0>         0.1365
     41 H15         6.8870   -2.5937   -1.2862 H         1 <0>         0.1272
     42 H16         7.2451   -1.8836   -3.6111 H         1 <0>         0.1295
     43 H17         7.2033    2.2136   -2.3854 H         1 <0>         0.1292
     44 H18         6.8341    1.5238   -0.0560 H         1 <0>         0.1251
     45 H19         6.6266    0.7351   -4.9248 H         1 <0>         0.3914
     46 H20         9.5232    0.1272    1.7250 H         1 <0>         0.1536
     47 H21         9.4934    0.2022    4.3618 H         1 <0>         0.1600
@<TRIPOS>BOND
     1    1    6 ar
     2    1    2 ar
     3    1   27 1
     4    2    3 ar
     5    2   28 1
     6    3    4 ar
     7    3   29 1
     8    4    5 ar
     9    4    7 1
    10    5    6 ar
    11    5   30 1
    12    6   31 1
    13    7    8 1
    14    7   32 1
    15    7   33 1
    16    8    9 1
    17    8   34 1
    18    8   35 1
    19    9   17 1
    20    9   10 1
    21    9   36 1
    22   10   15 1
    23   10   11 1
    24   10   37 1
    25   11   12 2
    26   11   38 1
    27   12   13 1
    28   12   39 1
    29   13   14 2
    30   13   40 1
    31   14   26 1
    32   14   15 1
    33   15   16 1
    34   16   17 2
    35   16   25 1
    36   17   18 1
    37   18   23 ar
    38   18   19 ar
    39   19   20 ar
    40   19   41 1
    41   20   21 ar
    42   20   42 1
    43   21   22 ar
    44   21   24 1
    45   22   23 ar
    46   22   43 1
    47   23   44 1
    48   24   45 1
    49   25   26 2
    50   25   46 1
    51   26   47 1
@<TRIPOS>MOLECULE
CHEMBL309677__1
   47    51     0     0     0
SMALL
USER_CHARGES

@<TRIPOS>ATOM
      1 C1         -0.6280    0.4201    1.9729 C.ar      1 <0>        -0.1248
      2 C2         -0.2206   -0.1663    0.7892 C.ar      1 <0>        -0.1176
      3 C3          0.9609   -0.8825    0.7435 C.ar      1 <0>        -0.1170
      4 C4          1.7352   -1.0118    1.8813 C.ar      1 <0>        -0.0809
      5 C5          1.3283   -0.4246    3.0647 C.ar      1 <0>        -0.1179
      6 C6          0.1461    0.2904    3.1108 C.ar      1 <0>        -0.1180
      7 C7          3.0228   -1.7933    1.8316 C.3       1 <0>        -0.0833
      8 C8          4.1746   -0.8558    1.4641 C.3       1 <0>        -0.1014
      9 C9          5.4970   -1.6226    1.5294 C.3       1 <0>        -0.0427
     10 C10         5.8613   -1.9404    2.9818 C.3       1 <0>         0.2011
     11 C11         5.8875   -3.4058    3.3471 C.2       1 <0>        -0.1954
     12 C12         6.9579   -3.9401    3.9476 C.2       1 <0>        -0.0884
     13 C13         8.1970   -3.3044    4.2451 C.2       1 <0>        -0.1783
     14 C14         8.4348   -2.1088    3.6082 C.2       1 <0>         0.1609
     15 N1          7.2935   -1.6136    2.9650 N.pl3     1 <0>        -0.5899
     16 C15         7.6602   -0.7819    1.9534 C.2       1 <0>         0.1167
     17 C16         6.6465   -0.7476    1.0405 C.2       1 <0>        -0.1241
     18 C17         6.6601    0.0125   -0.2145 C.ar      1 <0>        -0.0283
     19 C18         5.7938    1.0997   -0.3878 C.ar      1 <0>        -0.0873
     20 C19         5.8116    1.8094   -1.5678 C.ar      1 <0>        -0.1441
     21 C20         6.6865    1.4491   -2.5854 C.ar      1 <0>         0.1063
     22 C21         7.5480    0.3714   -2.4198 C.ar      1 <0>        -0.1439
     23 C22         7.5436   -0.3425   -1.2422 C.ar      1 <0>        -0.0870
     24 O1          6.6995    2.1532   -3.7474 O.3       1 <0>        -0.5002
     25 C23         8.9745   -0.3711    2.3123 C.2       1 <0>        -0.0876
     26 C24         9.4151   -1.1709    3.3395 C.2       1 <0>        -0.1060
     27 H1         -1.5488    0.9834    2.0075 H         1 <0>         0.1206
     28 H2         -0.8256   -0.0653   -0.0997 H         1 <0>         0.1213
     29 H3          1.2788   -1.3412   -0.1811 H         1 <0>         0.1207
     30 H4          1.9331   -0.5259    3.9537 H         1 <0>         0.1200
     31 H5         -0.1720    0.7488    4.0355 H         1 <0>         0.1211
     32 H6          3.2147   -2.2396    2.8074 H         1 <0>         0.0745
     33 H7          2.9414   -2.5803    1.0818 H         1 <0>         0.0745
     34 H8          4.0249   -0.4750    0.4538 H         1 <0>         0.0770
     35 H9          4.2028   -0.0224    2.1660 H         1 <0>         0.0694
     36 H10         5.4362   -2.5374    0.9399 H         1 <0>         0.0941
     37 H11         5.2961   -1.3373    3.6924 H         1 <0>         0.0942
     38 H12         5.0342   -4.0284    3.1220 H         1 <0>         0.1242
     39 H13         6.8714   -4.9758    4.2416 H         1 <0>         0.1102
     40 H14         8.9098   -3.7368    4.9317 H         1 <0>         0.1372
     41 H15         5.1130    1.3804    0.4023 H         1 <0>         0.1286
     42 H16         5.1440    2.6475   -1.7027 H         1 <0>         0.1298
     43 H17         8.2252    0.0958   -3.2146 H         1 <0>         0.1298
     44 H18         8.2170   -1.1769   -1.1127 H         1 <0>         0.1259
     45 H19         7.3157    2.8984   -3.7489 H         1 <0>         0.3915
     46 H20         9.5314    0.4334    1.8551 H         1 <0>         0.1538
     47 H21        10.3632   -1.0822    3.8492 H         1 <0>         0.1607
@<TRIPOS>BOND
     1    1    6 ar
     2    1    2 ar
     3    1   27 1
     4    2    3 ar
     5    2   28 1
     6    3    4 ar
     7    3   29 1
     8    4    5 ar
     9    4    7 1
    10    5    6 ar
    11    5   30 1
    12    6   31 1
    13    7    8 1
    14    7   32 1
    15    7   33 1
    16    8    9 1
    17    8   34 1
    18    8   35 1
    19    9   17 1
    20    9   10 1
    21    9   36 1
    22   10   15 1
    23   10   11 1
    24   10   37 1
    25   11   12 2
    26   11   38 1
    27   12   13 1
    28   12   39 1
    29   13   14 2
    30   13   40 1
    31   14   26 1
    32   14   15 1
    33   15   16 1
    34   16   17 2
    35   16   25 1
    36   17   18 1
    37   18   23 ar
    38   18   19 ar
    39   19   20 ar
    40   19   41 1
    41   20   21 ar
    42   20   42 1
    43   21   22 ar
    44   21   24 1
    45   22   23 ar
    46   22   43 1
    47   23   44 1
    48   24   45 1
    49   25   26 2
    50   25   46 1
    51   26   47 1
@<TRIPOS>MOLECULE
CHEMBL309677__2
   47    51     0     0     0
SMALL
USER_CHARGES

@<TRIPOS>ATOM
      1 C1         -0.0167    1.3781    0.0096 C.ar      1 <0>        -0.1262
      2 C2          1.1709    2.0855    0.0021 C.ar      1 <0>        -0.1186
      3 C3          2.3773    1.4107   -0.0130 C.ar      1 <0>        -0.1197
      4 C4          2.3960    0.0285   -0.0201 C.ar      1 <0>        -0.0773
      5 C5          1.2084   -0.6789   -0.0117 C.ar      1 <0>        -0.1148
      6 C6          0.0021   -0.0041    0.0020 C.ar      1 <0>        -0.1179
      7 C7          3.7112   -0.7071   -0.0376 C.3       1 <0>        -0.0930
      8 C8          4.1714   -0.9633    1.3989 C.3       1 <0>        -0.0959
      9 C9          5.5066   -1.7102    1.3812 C.3       1 <0>        -0.0429
     10 C10         6.0035   -1.9540    2.8085 C.3       1 <0>         0.1998
     11 C11         7.2864   -1.2521    3.1864 C.2       1 <0>        -0.1943
     12 C12         8.3073   -1.9360    3.7175 C.2       1 <0>        -0.0891
     13 C13         8.4004   -3.3424    3.9216 C.2       1 <0>        -0.1768
     14 C14         7.4769   -4.1152    3.2572 C.2       1 <0>         0.1599
     15 N1          6.4522   -3.3478    2.6898 N.pl3     1 <0>        -0.5889
     16 C15         5.8975   -4.0215    1.6467 C.2       1 <0>         0.1177
     17 C16         5.3274   -3.1110    0.8054 C.2       1 <0>        -0.1244
     18 C17         4.6488   -3.4296   -0.4559 C.ar      1 <0>        -0.0171
     19 C18         5.1849   -2.9904   -1.6735 C.ar      1 <0>        -0.0919
     20 C19         4.5436   -3.2931   -2.8540 C.ar      1 <0>        -0.1404
     21 C20         3.3671   -4.0324   -2.8392 C.ar      1 <0>         0.1038
     22 C21         2.8302   -4.4704   -1.6348 C.ar      1 <0>        -0.1403
     23 C22         3.4652   -4.1791   -0.4480 C.ar      1 <0>        -0.0949
     24 O1          2.7390   -4.3278   -4.0072 O.3       1 <0>        -0.4997
     25 C23         6.2237   -5.3814    1.9101 C.2       1 <0>        -0.0884
     26 C24         7.1632   -5.4171    2.9114 C.2       1 <0>        -0.1051
     27 H1         -0.9591    1.9053    0.0259 H         1 <0>         0.1200
     28 H2          1.1563    3.1654    0.0076 H         1 <0>         0.1204
     29 H3          3.3051    1.9634   -0.0196 H         1 <0>         0.1195
     30 H4          1.2231   -1.7588   -0.0176 H         1 <0>         0.1187
     31 H5         -0.9258   -0.5567    0.0082 H         1 <0>         0.1203
     32 H6          3.5884   -1.6586   -0.5549 H         1 <0>         0.0906
     33 H7          4.4573   -0.1052   -0.5563 H         1 <0>         0.0694
     34 H8          4.2941   -0.0118    1.9163 H         1 <0>         0.0709
     35 H9          3.4252   -1.5652    1.9176 H         1 <0>         0.0688
     36 H10         6.2469   -1.1532    0.8069 H         1 <0>         0.0925
     37 H11         5.2153   -1.8228    3.5498 H         1 <0>         0.0955
     38 H12         7.3812   -0.1883    3.0263 H         1 <0>         0.1245
     39 H13         9.1614   -1.3523    4.0276 H         1 <0>         0.1105
     40 H14         9.1539   -3.7774    4.5615 H         1 <0>         0.1375
     41 H15         6.0991   -2.4154   -1.6862 H         1 <0>         0.1263
     42 H16         4.9557   -2.9548   -3.7933 H         1 <0>         0.1295
     43 H17         1.9151   -5.0440   -1.6297 H         1 <0>         0.1295
     44 H18         3.0495   -4.5242    0.4871 H         1 <0>         0.1266
     45 H19         3.0255   -5.1597   -4.4084 H         1 <0>         0.3909
     46 H20         5.8039   -6.2401    1.4073 H         1 <0>         0.1539
     47 H21         7.5846   -6.3084    3.3524 H         1 <0>         0.1607
@<TRIPOS>BOND
     1    1    6 ar
     2    1    2 ar
     3    1   27 1
     4    2    3 ar
     5    2   28 1
     6    3    4 ar
     7    3   29 1
     8    4    5 ar
     9    4    7 1
    10    5    6 ar
    11    5   30 1
    12    6   31 1
    13    7    8 1
    14    7   32 1
    15    7   33 1
    16    8    9 1
    17    8   34 1
    18    8   35 1
    19    9   17 1
    20    9   10 1
    21    9   36 1
    22   10   15 1
    23   10   11 1
    24   10   37 1
    25   11   12 2
    26   11   38 1
    27   12   13 1
    28   12   39 1
    29   13   14 2
    30   13   40 1
    31   14   26 1
    32   14   15 1
    33   15   16 1
    34   16   17 2
    35   16   25 1
    36   17   18 1
    37   18   23 ar
    38   18   19 ar
    39   19   20 ar
    40   19   41 1
    41   20   21 ar
    42   20   42 1
    43   21   22 ar
    44   21   24 1
    45   22   23 ar
    46   22   43 1
    47   23   44 1
    48   24   45 1
    49   25   26 2
    50   25   46 1
    51   26   47 1
@<TRIPOS>MOLECULE
CHEMBL309677__3
   47    51     0     0     0
SMALL
USER_CHARGES

@<TRIPOS>ATOM
      1 C1         -0.0167    1.3781    0.0096 C.ar      1 <0>        -0.1264
      2 C2          1.1709    2.0855    0.0021 C.ar      1 <0>        -0.1180
      3 C3          2.3773    1.4107   -0.0130 C.ar      1 <0>        -0.1195
      4 C4          2.3960    0.0285   -0.0201 C.ar      1 <0>        -0.0770
      5 C5          1.2084   -0.6789   -0.0117 C.ar      1 <0>        -0.1165
      6 C6          0.0021   -0.0041    0.0020 C.ar      1 <0>        -0.1178
      7 C7          3.7112   -0.7071   -0.0376 C.3       1 <0>        -0.0869
      8 C8          4.1714   -0.9633    1.3989 C.3       1 <0>        -0.0935
      9 C9          5.5066   -1.7102    1.3812 C.3       1 <0>        -0.0441
     10 C10         6.0035   -1.9540    2.8085 C.3       1 <0>         0.1980
     11 C11         5.2105   -1.2817    3.9042 C.2       1 <0>        -0.1864
     12 C12         4.7534   -1.9866    4.9463 C.2       1 <0>        -0.0922
     13 C13         4.8427   -3.3929    5.1523 C.2       1 <0>        -0.1747
     14 C14         5.1781   -4.1480    4.0528 C.2       1 <0>         0.1582
     15 N1          5.6130   -3.3598    2.9800 N.pl3     1 <0>        -0.5875
     16 C15         5.4220   -4.0283    1.8111 C.2       1 <0>         0.1188
     17 C16         5.3274   -3.1110    0.8054 C.2       1 <0>        -0.1255
     18 C17         5.0901   -3.4233   -0.6085 C.ar      1 <0>        -0.0223
     19 C18         6.0767   -3.1492   -1.5646 C.ar      1 <0>        -0.0896
     20 C19         5.8482   -3.4451   -2.8900 C.ar      1 <0>        -0.1422
     21 C20         4.6420   -4.0143   -3.2798 C.ar      1 <0>         0.1056
     22 C21         3.6592   -4.2880   -2.3364 C.ar      1 <0>        -0.1424
     23 C22         3.8781   -4.0021   -1.0071 C.ar      1 <0>        -0.0893
     24 O1          4.4224   -4.3039   -4.5890 O.3       1 <0>        -0.5001
     25 C23         5.3628   -5.3936    2.2077 C.2       1 <0>        -0.0894
     26 C24         5.2447   -5.4446    3.5761 C.2       1 <0>        -0.1049
     27 H1         -0.9591    1.9053    0.0259 H         1 <0>         0.1202
     28 H2          1.1563    3.1654    0.0076 H         1 <0>         0.1207
     29 H3          3.3051    1.9634   -0.0196 H         1 <0>         0.1198
     30 H4          1.2231   -1.7588   -0.0176 H         1 <0>         0.1177
     31 H5         -0.9258   -0.5567    0.0082 H         1 <0>         0.1203
     32 H6          3.5884   -1.6586   -0.5549 H         1 <0>         0.0825
     33 H7          4.4573   -0.1052   -0.5563 H         1 <0>         0.0701
     34 H8          4.2941   -0.0118    1.9163 H         1 <0>         0.0705
     35 H9          3.4252   -1.5652    1.9176 H         1 <0>         0.0656
     36 H10         6.2469   -1.1532    0.8069 H         1 <0>         0.0975
     37 H11         7.0776   -1.7963    2.9059 H         1 <0>         0.0947
     38 H12         5.0107   -0.2219    3.8465 H         1 <0>         0.1244
     39 H13         4.2586   -1.4221    5.7227 H         1 <0>         0.1094
     40 H14         4.6579   -3.8411    6.1174 H         1 <0>         0.1364
     41 H15         7.0145   -2.7066   -1.2628 H         1 <0>         0.1273
     42 H16         6.6079   -3.2340   -3.6281 H         1 <0>         0.1296
     43 H17         2.7235   -4.7298   -2.6456 H         1 <0>         0.1293
     44 H18         3.1155   -4.2198   -0.2740 H         1 <0>         0.1251
     45 H19         4.6999   -5.1936   -4.8469 H         1 <0>         0.3913
     46 H20         5.4041   -6.2458    1.5455 H         1 <0>         0.1532
     47 H21         5.2100   -6.3422    4.1757 H         1 <0>         0.1600
@<TRIPOS>BOND
     1    1    6 ar
     2    1    2 ar
     3    1   27 1
     4    2    3 ar
     5    2   28 1
     6    3    4 ar
     7    3   29 1
     8    4    5 ar
     9    4    7 1
    10    5    6 ar
    11    5   30 1
    12    6   31 1
    13    7    8 1
    14    7   32 1
    15    7   33 1
    16    8    9 1
    17    8   34 1
    18    8   35 1
    19    9   17 1
    20    9   10 1
    21    9   36 1
    22   10   15 1
    23   10   11 1
    24   10   37 1
    25   11   12 2
    26   11   38 1
    27   12   13 1
    28   12   39 1
    29   13   14 2
    30   13   40 1
    31   14   26 1
    32   14   15 1
    33   15   16 1
    34   16   17 2
    35   16   25 1
    36   17   18 1
    37   18   23 ar
    38   18   19 ar
    39   19   20 ar
    40   19   41 1
    41   20   21 ar
    42   20   42 1
    43   21   22 ar
    44   21   24 1
    45   22   23 ar
    46   22   43 1
    47   23   44 1
    48   24   45 1
    49   25   26 2
    50   25   46 1
    51   26   47 1
@<TRIPOS>MOLECULE
CHEMBL78526
   43    46     0     0     0
SMALL
USER_CHARGES

@<TRIPOS>ATOM
      1 C1          0.0812    1.4668   -0.5401 C.3       1 <0>        -0.1519
      2 C2          0.0874   -0.0552   -0.3834 C.3       1 <0>        -0.1237
      3 C3         -1.3523   -0.5635   -0.2848 C.3       1 <0>        -0.1231
      4 C4         -1.3462   -2.0855   -0.1282 C.3       1 <0>        -0.1014
      5 C5         -2.7758   -2.5805    0.0998 C.3       1 <0>        -0.0440
      6 C6         -2.7946   -4.1006    0.2798 C.3       1 <0>         0.1970
      7 C7         -1.4429   -4.7675    0.3763 C.2       1 <0>        -0.1875
      8 C8         -1.1370   -5.8065   -0.4104 C.2       1 <0>        -0.0918
      9 C9         -1.9242   -6.3681   -1.4559 C.2       1 <0>        -0.1773
     10 C10        -2.9801   -5.6057   -1.8982 C.2       1 <0>         0.1597
     11 N1         -3.2333   -4.5126   -1.0604 N.pl3     1 <0>        -0.5876
     12 C11        -3.8688   -3.5349   -1.7603 C.2       1 <0>         0.1165
     13 C12        -3.6280   -2.3424   -1.1423 C.2       1 <0>        -0.1230
     14 C13        -4.1127   -1.0357   -1.6013 C.ar      1 <0>        -0.0206
     15 C14        -4.9985   -0.2957   -0.8074 C.ar      1 <0>        -0.0896
     16 C15        -5.4495    0.9303   -1.2434 C.ar      1 <0>        -0.1423
     17 C16        -5.0277    1.4336   -2.4680 C.ar      1 <0>         0.1047
     18 C17        -4.1495    0.7042   -3.2602 C.ar      1 <0>        -0.1427
     19 C18        -3.6869   -0.5205   -2.8325 C.ar      1 <0>        -0.0885
     20 O1         -5.4761    2.6438   -2.8928 O.3       1 <0>        -0.5002
     21 C19        -4.4561   -4.2292   -2.8549 C.2       1 <0>        -0.0881
     22 C20        -3.9238   -5.4946   -2.9031 C.2       1 <0>        -0.1064
     23 H1          1.1069    1.8290   -0.6103 H         1 <0>         0.0527
     24 H2         -0.4622    1.7367   -1.4456 H         1 <0>         0.0523
     25 H3         -0.4054    1.9190    0.3241 H         1 <0>         0.0527
     26 H4          0.5740   -0.5074   -1.2476 H         1 <0>         0.0585
     27 H5          0.6308   -0.3250    0.5221 H         1 <0>         0.0592
     28 H6         -1.8389   -0.1113    0.5794 H         1 <0>         0.0596
     29 H7         -1.8958   -0.2936   -1.1903 H         1 <0>         0.0708
     30 H8         -0.9435   -2.5421   -1.0323 H         1 <0>         0.0629
     31 H9         -0.7261   -2.3604    0.7250 H         1 <0>         0.0685
     32 H10        -3.2165   -2.0860    0.9656 H         1 <0>         0.0962
     33 H11        -3.4793   -4.4163    1.0669 H         1 <0>         0.0937
     34 H12        -0.7159   -4.4025    1.0867 H         1 <0>         0.1243
     35 H13        -0.1800   -6.2739   -0.2314 H         1 <0>         0.1093
     36 H14        -1.7044   -7.3377   -1.8779 H         1 <0>         0.1364
     37 H15        -5.3274   -0.6860    0.1444 H         1 <0>         0.1267
     38 H16        -6.1327    1.5016   -0.6325 H         1 <0>         0.1294
     39 H17        -3.8258    1.1003   -4.2114 H         1 <0>         0.1291
     40 H18        -3.0006   -1.0844   -3.4469 H         1 <0>         0.1250
     41 H19        -4.9216    3.3871   -2.6185 H         1 <0>         0.3910
     42 H20        -5.1949   -3.8288   -3.5332 H         1 <0>         0.1535
     43 H21        -4.1957   -6.2693   -3.6048 H         1 <0>         0.1601
@<TRIPOS>BOND
     1    1    2 1
     2    1   23 1
     3    1   24 1
     4    1   25 1
     5    2    3 1
     6    2   26 1
     7    2   27 1
     8    3    4 1
     9    3   28 1
    10    3   29 1
    11    4    5 1
    12    4   30 1
    13    4   31 1
    14    5   13 1
    15    5    6 1
    16    5   32 1
    17    6   11 1
    18    6    7 1
    19    6   33 1
    20    7    8 2
    21    7   34 1
    22    8    9 1
    23    8   35 1
    24    9   10 2
    25    9   36 1
    26   10   22 1
    27   10   11 1
    28   11   12 1
    29   12   13 2
    30   12   21 1
    31   13   14 1
    32   14   19 ar
    33   14   15 ar
    34   15   16 ar
    35   15   37 1
    36   16   17 ar
    37   16   38 1
    38   17   18 ar
    39   17   20 1
    40   18   19 ar
    41   18   39 1
    42   19   40 1
    43   20   41 1
    44   21   22 2
    45   21   42 1
    46   22   43 1
@<TRIPOS>MOLECULE
CHEMBL78526__1
   43    46     0     0     0
SMALL
USER_CHARGES

@<TRIPOS>ATOM
      1 C1          1.4121   -1.9160    2.5904 C.3       1 <0>        -0.1541
      2 C2          0.7566   -1.7618    1.2166 C.3       1 <0>        -0.1246
      3 C3         -0.6883   -2.2605    1.2820 C.3       1 <0>        -0.1224
      4 C4         -1.3438   -2.1062   -0.0918 C.3       1 <0>        -0.1088
      5 C5         -2.7480   -2.7129   -0.0579 C.3       1 <0>        -0.0428
      6 C6         -2.6706   -4.2390    0.0338 C.3       1 <0>         0.2016
      7 C7         -3.2180   -4.8496    1.3022 C.2       1 <0>        -0.1943
      8 C8         -4.1204   -5.8369    1.2498 C.2       1 <0>        -0.0893
      9 C9         -4.7453   -6.3846    0.0932 C.2       1 <0>        -0.1785
     10 C10        -4.6321   -5.6500   -1.0640 C.2       1 <0>         0.1604
     11 N1         -3.7042   -4.6080   -0.9428 N.pl3     1 <0>        -0.5903
     12 C11        -3.9933   -3.6280   -1.8405 C.2       1 <0>         0.1156
     13 C12        -3.4729   -2.4557   -1.3749 C.2       1 <0>        -0.1244
     14 C13        -3.5915   -1.1521   -2.0377 C.ar      1 <0>        -0.0279
     15 C14        -2.4562   -0.5284   -2.5713 C.ar      1 <0>        -0.0879
     16 C15        -2.5741    0.6949   -3.1927 C.ar      1 <0>        -0.1444
     17 C16        -3.8160    1.3107   -3.2909 C.ar      1 <0>         0.1059
     18 C17        -4.9457    0.6973   -2.7633 C.ar      1 <0>        -0.1437
     19 C18        -4.8416   -0.5287   -2.1447 C.ar      1 <0>        -0.0872
     20 O1         -3.9259    2.5176   -3.9051 O.3       1 <0>        -0.5002
     21 C19        -4.7587   -4.2965   -2.8366 C.2       1 <0>        -0.0876
     22 C20        -5.1114   -5.5350   -2.3563 C.2       1 <0>        -0.1061
     23 H1          2.4415   -1.5608    2.5438 H         1 <0>         0.0538
     24 H2          0.8587   -1.3308    3.3248 H         1 <0>         0.0536
     25 H3          1.4031   -2.9665    2.8814 H         1 <0>         0.0536
     26 H4          0.7656   -0.7113    0.9256 H         1 <0>         0.0615
     27 H5          1.3100   -2.3469    0.4822 H         1 <0>         0.0610
     28 H6         -0.6973   -3.3109    1.5730 H         1 <0>         0.0640
     29 H7         -1.2418   -1.6753    2.0165 H         1 <0>         0.0636
     30 H8         -1.4112   -1.0482   -0.3455 H         1 <0>         0.0746
     31 H9         -0.7431   -2.6219   -0.8410 H         1 <0>         0.0671
     32 H10        -3.3183   -2.3066    0.7774 H         1 <0>         0.0927
     33 H11        -1.6835   -4.6204   -0.2276 H         1 <0>         0.0941
     34 H12        -2.8778   -4.4864    2.2607 H         1 <0>         0.1238
     35 H13        -4.4085   -6.2695    2.1965 H         1 <0>         0.1100
     36 H14        -5.2782   -7.3235    0.1231 H         1 <0>         0.1372
     37 H15        -1.4905   -1.0058   -2.4952 H         1 <0>         0.1290
     38 H16        -1.6996    1.1769   -3.6041 H         1 <0>         0.1300
     39 H17        -5.9080    1.1812   -2.8422 H         1 <0>         0.1298
     40 H18        -5.7211   -1.0067   -1.7393 H         1 <0>         0.1259
     41 H19        -4.0978    2.4613   -4.8551 H         1 <0>         0.3915
     42 H20        -5.0181   -3.8982   -3.8064 H         1 <0>         0.1537
     43 H21        -5.6670   -6.2884   -2.8948 H         1 <0>         0.1607
@<TRIPOS>BOND
     1    1    2 1
     2    1   23 1
     3    1   24 1
     4    1   25 1
     5    2    3 1
     6    2   26 1
     7    2   27 1
     8    3    4 1
     9    3   28 1
    10    3   29 1
    11    4    5 1
    12    4   30 1
    13    4   31 1
    14    5   13 1
    15    5    6 1
    16    5   32 1
    17    6   11 1
    18    6    7 1
    19    6   33 1
    20    7    8 2
    21    7   34 1
    22    8    9 1
    23    8   35 1
    24    9   10 2
    25    9   36 1
    26   10   22 1
    27   10   11 1
    28   11   12 1
    29   12   13 2
    30   12   21 1
    31   13   14 1
    32   14   19 ar
    33   14   15 ar
    34   15   16 ar
    35   15   37 1
    36   16   17 ar
    37   16   38 1
    38   17   18 ar
    39   17   20 1
    40   18   19 ar
    41   18   39 1
    42   19   40 1
    43   20   41 1
    44   21   22 2
    45   21   42 1
    46   22   43 1
@<TRIPOS>MOLECULE
CHEMBL78526__2
   43    46     0     0     0
SMALL
USER_CHARGES

@<TRIPOS>ATOM
      1 C1         -0.0187    1.5258    0.0104 C.3       1 <0>        -0.1521
      2 C2          0.0021   -0.0041    0.0020 C.3       1 <0>        -0.1222
      3 C3         -1.4333   -0.5336    0.0129 C.3       1 <0>        -0.1320
      4 C4         -1.4126   -2.0635    0.0045 C.3       1 <0>        -0.1033
      5 C5         -2.8479   -2.5931    0.0153 C.3       1 <0>        -0.0432
      6 C6         -2.8551   -4.1234   -0.0216 C.3       1 <0>         0.1992
      7 C7         -3.4575   -4.7481   -1.2578 C.2       1 <0>        -0.1948
      8 C8         -4.4111   -5.6819   -1.1548 C.2       1 <0>        -0.0891
      9 C9         -5.0446   -6.1521    0.0309 C.2       1 <0>        -0.1781
     10 C10        -4.8707   -5.3838    1.1583 C.2       1 <0>         0.1603
     11 N1         -3.8896   -4.4000    0.9843 N.pl3     1 <0>        -0.5890
     12 C11        -4.1089   -3.3742    1.8499 C.2       1 <0>         0.1152
     13 C12        -3.5340   -2.2496    1.3334 C.2       1 <0>        -0.1221
     14 C13        -3.5707   -0.9183    1.9493 C.ar      1 <0>        -0.0152
     15 C14        -4.2480    0.1315    1.3154 C.ar      1 <0>        -0.0912
     16 C15        -4.2792    1.3786    1.8988 C.ar      1 <0>        -0.1406
     17 C16        -3.6407    1.5968    3.1135 C.ar      1 <0>         0.1023
     18 C17        -2.9668    0.5597    3.7469 C.ar      1 <0>        -0.1401
     19 C18        -2.9333   -0.6934    3.1764 C.ar      1 <0>        -0.0941
     20 O1         -3.6750    2.8294    3.6840 O.3       1 <0>        -0.5000
     21 C19        -4.8914   -3.9636    2.8820 C.2       1 <0>        -0.0878
     22 C20        -5.3202   -5.1959    2.4527 C.2       1 <0>        -0.1060
     23 H1          1.0039    1.9031    0.0027 H         1 <0>         0.0523
     24 H2         -0.5459    1.8868   -0.8726 H         1 <0>         0.0522
     25 H3         -0.5289    1.8773    0.9072 H         1 <0>         0.0538
     26 H4          0.5123   -0.3556   -0.8948 H         1 <0>         0.0583
     27 H5          0.5293   -0.3651    0.8851 H         1 <0>         0.0590
     28 H6         -1.9435   -0.1821    0.9097 H         1 <0>         0.0810
     29 H7         -1.9605   -0.1726   -0.8702 H         1 <0>         0.0589
     30 H8         -0.9024   -2.4150   -0.8923 H         1 <0>         0.0686
     31 H9         -0.8854   -2.4246    0.8875 H         1 <0>         0.0662
     32 H10        -3.4103   -2.1863   -0.8251 H         1 <0>         0.0913
     33 H11        -1.8856   -4.5488    0.2378 H         1 <0>         0.0950
     34 H12        -3.1158   -4.4381   -2.2343 H         1 <0>         0.1242
     35 H13        -4.7391   -6.1316   -2.0803 H         1 <0>         0.1103
     36 H14        -5.6286   -7.0604    0.0440 H         1 <0>         0.1374
     37 H15        -4.7444   -0.0368    0.3711 H         1 <0>         0.1255
     38 H16        -4.8007    2.1888    1.4110 H         1 <0>         0.1291
     39 H17        -2.4718    0.7356    4.6905 H         1 <0>         0.1293
     40 H18        -2.4134   -1.4999    3.6720 H         1 <0>         0.1262
     41 H19        -4.4256    2.9672    4.2779 H         1 <0>         0.3908
     42 H20        -5.1113   -3.5172    3.8406 H         1 <0>         0.1539
     43 H21        -5.9074   -5.8971    3.0271 H         1 <0>         0.1607
@<TRIPOS>BOND
     1    1    2 1
     2    1   23 1
     3    1   24 1
     4    1   25 1
     5    2    3 1
     6    2   26 1
     7    2   27 1
     8    3    4 1
     9    3   28 1
    10    3   29 1
    11    4    5 1
    12    4   30 1
    13    4   31 1
    14    5   13 1
    15    5    6 1
    16    5   32 1
    17    6   11 1
    18    6    7 1
    19    6   33 1
    20    7    8 2
    21    7   34 1
    22    8    9 1
    23    8   35 1
    24    9   10 2
    25    9   36 1
    26   10   22 1
    27   10   11 1
    28   11   12 1
    29   12   13 2
    30   12   21 1
    31   13   14 1
    32   14   19 ar
    33   14   15 ar
    34   15   16 ar
    35   15   37 1
    36   16   17 ar
    37   16   38 1
    38   17   18 ar
    39   17   20 1
    40   18   19 ar
    41   18   39 1
    42   19   40 1
    43   20   41 1
    44   21   22 2
    45   21   42 1
    46   22   43 1
@<TRIPOS>MOLECULE
CHEMBL78526__3
   43    46     0     0     0
SMALL
USER_CHARGES

@<TRIPOS>ATOM
      1 C1         -0.0187    1.5258    0.0104 C.3       1 <0>        -0.1524
      2 C2          0.0021   -0.0041    0.0020 C.3       1 <0>        -0.1227
      3 C3         -1.4333   -0.5336    0.0129 C.3       1 <0>        -0.1255
      4 C4         -1.4126   -2.0635    0.0045 C.3       1 <0>        -0.1012
      5 C5         -2.8479   -2.5931    0.0153 C.3       1 <0>        -0.0442
      6 C6         -2.8551   -4.1234   -0.0216 C.3       1 <0>         0.1971
      7 C7         -1.5128   -4.7818   -0.2367 C.2       1 <0>        -0.1868
      8 C8         -1.0819   -5.7395    0.5933 C.2       1 <0>        -0.0923
      9 C9         -1.7115   -6.2105    1.7807 C.2       1 <0>        -0.1767
     10 C10        -2.7171   -5.4218    2.2890 C.2       1 <0>         0.1589
     11 N1         -3.1034   -4.4136    1.3971 N.pl3     1 <0>        -0.5876
     12 C11        -3.6635   -3.3819    2.0838 C.2       1 <0>         0.1159
     13 C12        -3.5340   -2.2496    1.3334 C.2       1 <0>        -0.1224
     14 C13        -3.9840   -0.9112    1.7323 C.ar      1 <0>        -0.0211
     15 C14        -5.0113   -0.2744    1.0239 C.ar      1 <0>        -0.0896
     16 C15        -5.4296    0.9816    1.4034 C.ar      1 <0>        -0.1424
     17 C16        -4.8349    1.6173    2.4865 C.ar      1 <0>         0.1050
     18 C17        -3.8151    0.9911    3.1928 C.ar      1 <0>        -0.1428
     19 C18        -3.3920   -0.2673    2.8266 C.ar      1 <0>        -0.0880
     20 O1         -5.2518    2.8565    2.8561 O.3       1 <0>        -0.5002
     21 C19        -4.0849   -3.9775    3.3055 C.2       1 <0>        -0.0885
     22 C20        -3.5226   -5.2283    3.3966 C.2       1 <0>        -0.1060
     23 H1          1.0039    1.9031    0.0027 H         1 <0>         0.0525
     24 H2         -0.5459    1.8868   -0.8726 H         1 <0>         0.0529
     25 H3         -0.5289    1.8773    0.9072 H         1 <0>         0.0532
     26 H4          0.5123   -0.3556   -0.8948 H         1 <0>         0.0587
     27 H5          0.5293   -0.3651    0.8851 H         1 <0>         0.0581
     28 H6         -1.9435   -0.1821    0.9097 H         1 <0>         0.0727
     29 H7         -1.9605   -0.1726   -0.8702 H         1 <0>         0.0595
     30 H8         -0.9024   -2.4150   -0.8923 H         1 <0>         0.0683
     31 H9         -0.8854   -2.4246    0.8875 H         1 <0>         0.0628
     32 H10        -3.4103   -2.1863   -0.8251 H         1 <0>         0.0963
     33 H11        -3.6302   -4.5186   -0.6782 H         1 <0>         0.0937
     34 H12        -0.8949   -4.4771   -1.0685 H         1 <0>         0.1244
     35 H13        -0.1463   -6.2111    0.3312 H         1 <0>         0.1094
     36 H14        -1.4162   -7.1347    2.2550 H         1 <0>         0.1364
     37 H15        -5.4741   -0.7673    0.1817 H         1 <0>         0.1268
     38 H16        -6.2212    1.4737    0.8579 H         1 <0>         0.1294
     39 H17        -3.3563    1.4905    4.0333 H         1 <0>         0.1291
     40 H18        -2.6027   -0.7550    3.3793 H         1 <0>         0.1251
     41 H19        -5.9699    2.8529    3.5038 H         1 <0>         0.3912
     42 H20        -4.7368   -3.5237    4.0372 H         1 <0>         0.1531
     43 H21        -3.6821   -5.9378    4.1951 H         1 <0>         0.1600
@<TRIPOS>BOND
     1    1    2 1
     2    1   23 1
     3    1   24 1
     4    1   25 1
     5    2    3 1
     6    2   26 1
     7    2   27 1
     8    3    4 1
     9    3   28 1
    10    3   29 1
    11    4    5 1
    12    4   30 1
    13    4   31 1
    14    5   13 1
    15    5    6 1
    16    5   32 1
    17    6   11 1
    18    6    7 1
    19    6   33 1
    20    7    8 2
    21    7   34 1
    22    8    9 1
    23    8   35 1
    24    9   10 2
    25    9   36 1
    26   10   22 1
    27   10   11 1
    28   11   12 1
    29   12   13 2
    30   12   21 1
    31   13   14 1
    32   14   19 ar
    33   14   15 ar
    34   15   16 ar
    35   15   37 1
    36   16   17 ar
    37   16   38 1
    38   17   18 ar
    39   17   20 1
    40   18   19 ar
    41   18   39 1
    42   19   40 1
    43   20   41 1
    44   21   22 2
    45   21   42 1
    46   22   43 1
@<TRIPOS>MOLECULE
CHEMBL85090
   68    72     0     0     0
SMALL
USER_CHARGES

@<TRIPOS>ATOM
      1 C1          0.2256    1.7687   -0.6059 C.ar      1 <0>        -0.0609
      2 C2          1.4229    2.4118   -0.3584 C.ar      1 <0>        -0.1389
      3 C3          2.6056    1.6871   -0.3315 C.ar      1 <0>         0.1214
      4 C4          2.5825    0.3178   -0.5532 C.ar      1 <0>        -0.2034
      5 C5          1.3826   -0.3206   -0.8002 C.ar      1 <0>        -0.0465
      6 C6          0.2053    0.4039   -0.8266 C.ar      1 <0>        -0.1003
      7 C7         -1.1023   -0.2952   -1.0958 C.3       1 <0>         0.1451
      8 H1         -1.9148    0.2569   -0.6234 H         1 <0>         0.0925
      9 C8         -1.3439   -0.3678   -2.6128 C.3       1 <0>        -0.1025
     10 H2         -1.2847    0.6302   -3.0471 H         1 <0>         0.1302
     11 S1         -3.0137   -1.0519   -2.8533 S.3       1 <0>        -0.0892
     12 C9         -3.0620   -2.3719   -1.6803 C.ar      1 <0>        -0.1361
     13 C10        -4.0825   -3.3101   -1.7625 C.ar      1 <0>        -0.0927
     14 C11        -4.1471   -4.3500   -0.8494 C.ar      1 <0>         0.0984
     15 C12        -3.1885   -4.4469    0.1487 C.ar      1 <0>        -0.1097
     16 C13        -2.1731   -3.5164    0.2294 C.ar      1 <0>        -0.1173
     17 C14        -2.0936   -2.4708   -0.6875 C.ar      1 <0>         0.1265
     18 O1         -1.0538   -1.6122   -0.5687 O.3       1 <0>        -0.3097
     19 O2         -5.1448   -5.2702   -0.9307 O.3       1 <0>        -0.4926
     20 C15        -0.3043   -1.2824   -3.2638 C.3       1 <0>        -0.0698
     21 C16        -0.4258   -1.1901   -4.7862 C.3       1 <0>        -0.1181
     22 C17         0.6137   -2.1047   -5.4371 C.3       1 <0>        -0.1150
     23 C18         0.3721   -3.5487   -4.9928 C.3       1 <0>        -0.1220
     24 C19         0.4935   -3.6410   -3.4705 C.3       1 <0>        -0.1115
     25 C20        -0.5460   -2.7264   -2.8195 C.3       1 <0>        -0.1602
     26 O3          3.7848    2.3176   -0.0888 O.3       1 <0>        -0.3269
     27 C21         4.9625    1.5083   -0.0759 C.3       1 <0>         0.0251
     28 C22         6.1818    2.3868    0.2112 C.3       1 <0>        -0.0011
     29 N1          6.0785    2.9392    1.5685 N.4       1 <0>        -0.3843
     30 C23         7.1611    3.9066    1.7850 C.3       1 <0>        -0.0070
     31 C24         7.0108    4.5449    3.1676 C.3       1 <0>        -0.1467
     32 C25         7.0788    3.4522    4.2384 C.3       1 <0>        -0.1391
     33 C26         5.9925    2.4095    3.9594 C.3       1 <0>        -0.1454
     34 C27         6.1804    1.8504    2.5475 C.3       1 <0>        -0.0134
     35 H3         -0.6959    2.3317   -0.6225 H         1 <0>         0.1395
     36 H4          1.4383    3.4779   -0.1865 H         1 <0>         0.1376
     37 H5          3.5019   -0.2485   -0.5331 H         1 <0>         0.1297
     38 H6          1.3641   -1.3865   -0.9729 H         1 <0>         0.1380
     39 H7         -4.8273   -3.2291   -2.5403 H         1 <0>         0.1387
     40 H8         -3.2375   -5.2534    0.8653 H         1 <0>         0.1405
     41 H9         -1.4323   -3.5998    1.0108 H         1 <0>         0.1383
     42 H10        -4.9316   -6.0335   -1.4848 H         1 <0>         0.3939
     43 H11         0.6949   -0.9711   -2.9595 H         1 <0>         0.0822
     44 H12        -1.4251   -1.5015   -5.0905 H         1 <0>         0.0749
     45 H13        -0.2536   -0.1614   -5.1027 H         1 <0>         0.0597
     46 H14         0.5272   -2.0390   -6.5217 H         1 <0>         0.0639
     47 H15         1.6130   -1.7934   -5.1328 H         1 <0>         0.0571
     48 H16        -0.6272   -3.8601   -5.2972 H         1 <0>         0.0632
     49 H17         1.1127   -4.2003   -5.4566 H         1 <0>         0.0606
     50 H18         0.3214   -4.6698   -3.1540 H         1 <0>         0.0607
     51 H19         1.4928   -3.3297   -3.1661 H         1 <0>         0.0549
     52 H20        -0.4595   -2.7922   -1.7349 H         1 <0>         0.0971
     53 H21        -1.5453   -3.0378   -3.1238 H         1 <0>         0.0754
     54 H22         4.8721    0.7475    0.6994 H         1 <0>         0.0870
     55 H23         5.0825    1.0260   -1.0460 H         1 <0>         0.1099
     56 H24         7.0885    1.7872    0.1310 H         1 <0>         0.1493
     57 H25         6.2203    3.2022   -0.5110 H         1 <0>         0.1430
     58 H26         8.1219    3.3957    1.7236 H         1 <0>         0.1292
     59 H27         7.1133    4.6819    1.0203 H         1 <0>         0.1311
     60 H28         7.8165    5.2615    3.3271 H         1 <0>         0.1132
     61 H29         6.0503    5.0564    3.2299 H         1 <0>         0.0880
     62 H30         8.0582    2.9747    4.2101 H         1 <0>         0.0822
     63 H31         6.9158    3.8944    5.2212 H         1 <0>         0.0949
     64 H32         6.0702    1.5998    4.6849 H         1 <0>         0.1125
     65 H33         5.0108    2.8767    4.0382 H         1 <0>         0.0879
     66 H34         5.4087    1.1075    2.3456 H         1 <0>         0.1273
     67 H35         7.1622    1.3833    2.4699 H         1 <0>         0.1304
     68 H36         5.1890    3.4036    1.6747 H         1 <0>         0.4292
@<TRIPOS>BOND
     1    1    6 ar
     2    1    2 ar
     3    1   35 1
     4    2    3 ar
     5    2   36 1
     6    3    4 ar
     7    3   26 1
     8    4    5 ar
     9    4   37 1
    10    5    6 ar
    11    5   38 1
    12    6    7 1
    13    7    8 1
    14    7   18 1
    15    7    9 1
    16    9   10 1
    17    9   11 1
    18    9   20 1
    19   11   12 1
    20   12   17 ar
    21   12   13 ar
    22   13   14 ar
    23   13   39 1
    24   14   15 ar
    25   14   19 1
    26   15   16 ar
    27   15   40 1
    28   16   17 ar
    29   16   41 1
    30   17   18 1
    31   19   42 1
    32   20   25 1
    33   20   21 1
    34   20   43 1
    35   21   22 1
    36   21   44 1
    37   21   45 1
    38   22   23 1
    39   22   46 1
    40   22   47 1
    41   23   24 1
    42   23   48 1
    43   23   49 1
    44   24   25 1
    45   24   50 1
    46   24   51 1
    47   25   52 1
    48   25   53 1
    49   26   27 1
    50   27   28 1
    51   27   54 1
    52   27   55 1
    53   28   29 1
    54   28   56 1
    55   28   57 1
    56   29   34 1
    57   29   30 1
    58   29   68 1
    59   30   31 1
    60   30   58 1
    61   30   59 1
    62   31   32 1
    63   31   60 1
    64   31   61 1
    65   32   33 1
    66   32   62 1
    67   32   63 1
    68   33   34 1
    69   33   64 1
    70   33   65 1
    71   34   66 1
    72   34   67 1
@<TRIPOS>MOLECULE
CHEMBL59184
   54    57     0     0     0
SMALL
USER_CHARGES

@<TRIPOS>ATOM
      1 C1         -0.0184    1.5028    0.0103 C.3       1 <0>        -0.1186
      2 C2          0.0021   -0.0041    0.0020 C.ar      1 <0>        -0.1010
      3 C3          0.0057   -0.6863   -1.1964 C.ar      1 <0>        -0.0533
      4 C4          0.0246   -2.0801   -1.2032 C.ar      1 <0>        -0.1121
      5 C5          0.0398   -2.7803    0.0026 C.ar      1 <0>        -0.0854
      6 C6          0.0361   -2.0927    1.1974 C.ar      1 <0>        -0.1329
      7 C7          0.0230   -0.7039    1.2009 C.ar      1 <0>         0.1544
      8 O1          0.0249   -0.0290    2.3798 O.3       1 <0>        -0.4880
      9 C8          0.0281   -2.8168   -2.4901 C.ar      1 <0>         0.2483
     10 C9          0.0181   -2.1095   -3.6869 C.ar      1 <0>        -0.1757
     11 C10         0.0220   -2.8148   -4.8927 C.ar      1 <0>         0.1344
     12 C11         0.0357   -4.2098   -4.8451 C.ar      1 <0>        -0.2224
     13 C12         0.0451   -4.8451   -3.6096 C.ar      1 <0>         0.4602
     14 N1          0.0461   -4.1448   -2.4865 N.ar      1 <0>        -0.5190
     15 N2          0.0583   -6.2342   -3.5522 N.pl3     1 <0>        -0.5851
     16 C13         0.0682   -6.9136   -2.2544 C.3       1 <0>         0.0558
     17 C14         0.0623   -7.0184   -4.7897 C.3       1 <0>         0.1545
     18 C15         1.4845   -7.2739   -5.2178 C.ar      1 <0>        -0.1343
     19 C16         2.1274   -6.3770   -6.0504 C.ar      1 <0>        -0.1068
     20 C17         3.4319   -6.6114   -6.4432 C.ar      1 <0>        -0.1151
     21 C18         4.0936   -7.7424   -6.0029 C.ar      1 <0>        -0.1003
     22 C19         3.4511   -8.6388   -5.1695 C.ar      1 <0>        -0.1148
     23 C20         2.1480   -8.4022   -4.7733 C.ar      1 <0>        -0.0986
     24 C21         0.0112   -2.0985   -6.1924 C.ar      1 <0>        -0.1009
     25 C22         0.0095   -2.8166   -7.3864 C.ar      1 <0>        -0.0799
     26 C23        -0.0005   -2.1454   -8.5924 C.ar      1 <0>        -0.1188
     27 C24        -0.0083   -0.7624   -8.6170 C.ar      1 <0>        -0.0774
     28 C25        -0.0061   -0.0446   -7.4346 C.ar      1 <0>        -0.1184
     29 C26        -0.0029   -0.7056   -6.2230 C.ar      1 <0>        -0.0780
     30 H1          1.0042    1.8801    0.0026 H         1 <0>         0.0837
     31 H2         -0.5455    1.8639   -0.8728 H         1 <0>         0.0751
     32 H3         -0.5286    1.8543    0.9071 H         1 <0>         0.0778
     33 H4         -0.0065   -0.1413   -2.1287 H         1 <0>         0.1438
     34 H5          0.0541   -3.8602    0.0004 H         1 <0>         0.1231
     35 H6          0.0478   -2.6344    2.1316 H         1 <0>         0.1473
     36 H7         -0.8578    0.1543    2.7295 H         1 <0>         0.4046
     37 H8          0.0072   -1.0295   -3.6845 H         1 <0>         0.1775
     38 H9          0.0387   -4.7880   -5.7573 H         1 <0>         0.1770
     39 H10        -0.9570   -7.0918   -1.9297 H         1 <0>         0.0866
     40 H11         0.5908   -7.8657   -2.3467 H         1 <0>         0.1070
     41 H12         0.5781   -6.2889   -1.5211 H         1 <0>         0.0696
     42 H13        -0.4421   -7.9694   -4.6188 H         1 <0>         0.1157
     43 H14        -0.4588   -6.4660   -5.5716 H         1 <0>         0.1028
     44 H15         1.6103   -5.4934   -6.3944 H         1 <0>         0.1196
     45 H16         3.9339   -5.9111   -7.0943 H         1 <0>         0.1291
     46 H17         5.1126   -7.9259   -6.3103 H         1 <0>         0.1299
     47 H18         3.9680   -9.5225   -4.8258 H         1 <0>         0.1301
     48 H19         1.6472   -9.1006   -4.1192 H         1 <0>         0.1248
     49 H20         0.0163   -3.8965   -7.3684 H         1 <0>         0.1282
     50 H21        -0.0018   -2.7010   -9.5185 H         1 <0>         0.1371
     51 H22        -0.0157   -0.2412   -9.5628 H         1 <0>         0.1364
     52 H23        -0.0115    1.0351   -7.4596 H         1 <0>         0.1377
     53 H24        -0.0061   -0.1442   -5.3004 H         1 <0>         0.1320
     54 H25         0.0568   -4.6142   -1.6377 H         1 <0>         0.4327
@<TRIPOS>BOND
     1    1    2 1
     2    1   30 1
     3    1   31 1
     4    1   32 1
     5    2    7 ar
     6    2    3 ar
     7    3    4 ar
     8    3   33 1
     9    4    5 ar
    10    4    9 1
    11    5    6 ar
    12    5   34 1
    13    6    7 ar
    14    6   35 1
    15    7    8 1
    16    8   36 1
    17    9   14 ar
    18    9   10 ar
    19   10   11 ar
    20   10   37 1
    21   11   12 ar
    22   11   24 1
    23   12   13 ar
    24   12   38 1
    25   13   14 ar
    26   13   15 1
    27   14   54 1
    28   15   16 1
    29   15   17 1
    30   16   39 1
    31   16   40 1
    32   16   41 1
    33   17   18 1
    34   17   42 1
    35   17   43 1
    36   18   23 ar
    37   18   19 ar
    38   19   20 ar
    39   19   44 1
    40   20   21 ar
    41   20   45 1
    42   21   22 ar
    43   21   46 1
    44   22   23 ar
    45   22   47 1
    46   23   48 1
    47   24   29 ar
    48   24   25 ar
    49   25   26 ar
    50   25   49 1
    51   26   27 ar
    52   26   50 1
    53   27   28 ar
    54   27   51 1
    55   28   29 ar
    56   28   52 1
    57   29   53 1
@<TRIPOS>MOLECULE
CHEMBL383372
   72    76     0     0     0
SMALL
USER_CHARGES

@<TRIPOS>ATOM
      1 C1         -1.1876    1.8196    0.4763 C.3       1 <0>        -0.1459
      2 C2         -1.0667    0.2944    0.4682 C.3       1 <0>        -0.0796
      3 C3         -2.4375   -0.3174    0.3354 C.2       1 <0>        -0.0534
      4 C4         -2.9878   -0.7048   -0.8225 C.2       1 <0>        -0.0663
      5 C5         -4.3603   -1.2621   -0.5250 C.3       1 <0>        -0.0312
      6 C6         -4.5290   -1.1434    0.9702 C.ar      1 <0>        -0.0898
      7 C7         -3.3486   -0.5752    1.4602 C.ar      1 <0>        -0.0615
      8 C8         -3.2177   -0.3493    2.8354 C.ar      1 <0>        -0.0735
      9 C9         -4.2438   -0.6899    3.6893 C.ar      1 <0>        -0.1341
     10 C10        -5.4097   -1.2578    3.1927 C.ar      1 <0>         0.1167
     11 C11        -5.5503   -1.4764    1.8268 C.ar      1 <0>        -0.1226
     12 O1         -6.4172   -1.5915    4.0410 O.3       1 <0>        -0.4952
     13 C12        -4.4385   -2.7072   -0.9453 C.2       1 <0>         0.5384
     14 O2         -3.4730   -3.2472   -1.4428 O.2       1 <0>        -0.4974
     15 N1         -5.5812   -3.3997   -0.7683 N.am      1 <0>        -0.6739
     16 C13        -5.6858   -4.7127   -1.2459 C.ar      1 <0>         0.1296
     17 C14        -6.8940   -5.1736   -1.7516 C.ar      1 <0>        -0.1036
     18 C15        -6.9963   -6.4676   -2.2226 C.ar      1 <0>        -0.1205
     19 C16        -5.8925   -7.3071   -2.1903 C.ar      1 <0>         0.0973
     20 C17        -4.6852   -6.8474   -1.6848 C.ar      1 <0>        -0.1815
     21 C18        -4.5799   -5.5517   -1.2192 C.ar      1 <0>        -0.0785
     22 O3         -5.9941   -8.5813   -2.6538 O.3       1 <0>        -0.3284
     23 C19        -4.8179   -9.3905   -2.5903 C.3       1 <0>         0.0253
     24 C20        -5.1240  -10.7802   -3.1523 C.3       1 <0>        -0.0004
     25 N2         -5.4755  -10.6670   -4.5741 N.4       1 <0>        -0.3840
     26 C21        -5.9195  -11.9743   -5.0725 C.3       1 <0>        -0.0069
     27 C22        -6.3636  -11.8443   -6.5310 C.3       1 <0>        -0.1466
     28 C23        -5.1863  -11.3475   -7.3751 C.3       1 <0>        -0.1388
     29 C24        -4.6838  -10.0197   -6.8009 C.3       1 <0>        -0.1455
     30 C25        -4.3019  -10.2172   -5.3324 C.3       1 <0>        -0.0134
     31 C26        -2.3641   -0.6047   -2.1537 C.ar      1 <0>        -0.0328
     32 C27        -2.9138    0.2383   -3.1238 C.ar      1 <0>        -0.0908
     33 C28        -2.3266    0.3290   -4.3672 C.ar      1 <0>        -0.1455
     34 C29        -1.1907   -0.4158   -4.6573 C.ar      1 <0>         0.1101
     35 C30        -0.6411   -1.2551   -3.6967 C.ar      1 <0>        -0.1466
     36 C31        -1.2175   -1.3478   -2.4484 C.ar      1 <0>        -0.0651
     37 O4         -0.6156   -0.3234   -5.8847 O.3       1 <0>        -0.5012
     38 H1         -0.1961    2.2621    0.5724 H         1 <0>         0.0618
     39 H2         -1.6455    2.1528   -0.4550 H         1 <0>         0.0567
     40 H3         -1.8073    2.1305    1.3174 H         1 <0>         0.0566
     41 H4         -0.4471   -0.0165   -0.3729 H         1 <0>         0.0779
     42 H5         -0.6089   -0.0388    1.3996 H         1 <0>         0.0758
     43 H6         -5.1239   -0.6777   -1.0382 H         1 <0>         0.1320
     44 H7         -2.3128    0.0914    3.2269 H         1 <0>         0.1335
     45 H8         -4.1408   -0.5147    4.7500 H         1 <0>         0.1375
     46 H9         -6.4567   -1.9192    1.4408 H         1 <0>         0.1268
     47 H10        -7.0588   -0.8831    4.1876 H         1 <0>         0.3957
     48 H11        -6.3311   -2.9890   -0.3102 H         1 <0>         0.4122
     49 H12        -7.7537   -4.5203   -1.7761 H         1 <0>         0.1391
     50 H13        -7.9361   -6.8262   -2.6159 H         1 <0>         0.1374
     51 H14        -3.8264   -7.5018   -1.6593 H         1 <0>         0.1300
     52 H15        -3.6386   -5.1924   -0.8301 H         1 <0>         0.1467
     53 H16        -4.0259   -8.9271   -3.1786 H         1 <0>         0.0860
     54 H17        -4.4948   -9.4810   -1.5533 H         1 <0>         0.1090
     55 H18        -4.2460  -11.4171   -3.0447 H         1 <0>         0.1485
     56 H19        -5.9593  -11.2174   -2.6052 H         1 <0>         0.1424
     57 H20        -5.0970  -12.6865   -5.0056 H         1 <0>         0.1289
     58 H21        -6.7552  -12.3280   -4.4688 H         1 <0>         0.1308
     59 H22        -6.6912  -12.8164   -6.8997 H         1 <0>         0.1128
     60 H23        -7.1862  -11.1325   -6.5990 H         1 <0>         0.0879
     61 H24        -4.3827  -12.0834   -7.3487 H         1 <0>         0.0820
     62 H25        -5.5128  -11.1992   -8.4044 H         1 <0>         0.0945
     63 H26        -3.8107   -9.6875   -7.3625 H         1 <0>         0.1123
     64 H27        -5.4716   -9.2699   -6.8745 H         1 <0>         0.0880
     65 H28        -3.9435   -9.2738   -4.9205 H         1 <0>         0.1278
     66 H29        -3.5140  -10.9669   -5.2600 H         1 <0>         0.1301
     67 H30        -3.7974    0.8173   -2.8995 H         1 <0>         0.1262
     68 H31        -2.7505    0.9800   -5.1175 H         1 <0>         0.1306
     69 H32         0.2420   -1.8326   -3.9270 H         1 <0>         0.1294
     70 H33        -0.7869   -1.9973   -1.7007 H         1 <0>         0.1271
     71 H34         0.0591    0.3661   -5.9521 H         1 <0>         0.3935
     72 H35        -6.2219   -9.9967   -4.6826 H         1 <0>         0.4295
@<TRIPOS>BOND
     1    1    2 1
     2    1   38 1
     3    1   39 1
     4    1   40 1
     5    2    3 1
     6    2   41 1
     7    2   42 1
     8    3    7 1
     9    3    4 2
    10    4    5 1
    11    4   31 1
    12    5    6 1
    13    5   13 1
    14    5   43 1
    15    6   11 ar
    16    6    7 ar
    17    7    8 ar
    18    8    9 ar
    19    8   44 1
    20    9   10 ar
    21    9   45 1
    22   10   11 ar
    23   10   12 1
    24   11   46 1
    25   12   47 1
    26   13   14 2
    27   13   15 am
    28   15   16 1
    29   15   48 1
    30   16   21 ar
    31   16   17 ar
    32   17   18 ar
    33   17   49 1
    34   18   19 ar
    35   18   50 1
    36   19   20 ar
    37   19   22 1
    38   20   21 ar
    39   20   51 1
    40   21   52 1
    41   22   23 1
    42   23   24 1
    43   23   53 1
    44   23   54 1
    45   24   25 1
    46   24   55 1
    47   24   56 1
    48   25   30 1
    49   25   26 1
    50   25   72 1
    51   26   27 1
    52   26   57 1
    53   26   58 1
    54   27   28 1
    55   27   59 1
    56   27   60 1
    57   28   29 1
    58   28   61 1
    59   28   62 1
    60   29   30 1
    61   29   63 1
    62   29   64 1
    63   30   65 1
    64   30   66 1
    65   31   36 ar
    66   31   32 ar
    67   32   33 ar
    68   32   67 1
    69   33   34 ar
    70   33   68 1
    71   34   35 ar
    72   34   37 1
    73   35   36 ar
    74   35   69 1
    75   36   70 1
    76   37   71 1
