@<TRIPOS>MOLECULE
1SJ0-E4D
 63 67 0 0 0
SMALL
SF_CHARGES


@<TRIPOS>ATOM
1    C        31.1720   -0.2380   28.7070  C.3        1 SUBUNIT      0.0953
2    C        31.2760   -1.6690   28.1770  C.3        1 SUBUNIT      0.2751
3    O        30.0500   -2.3690   28.4310  O.3        1 SUBUNIT     -0.3870
4    C        28.8610   -1.9480   27.9670  C.2        1 SUBUNIT      0.1561
5    C        27.9320   -2.9010   27.5800  C.2        1 SUBUNIT     -0.1056
6    C        26.7240   -2.5350   27.0030  C.2        1 SUBUNIT     -0.1058
7    C        26.3460   -1.1830   27.0310  C.2        1 SUBUNIT      0.1647
8    O        25.1280   -0.8570   26.5840  O.3        1 SUBUNIT     -0.5017
9    C        27.2840   -0.2150   27.4260  C.2        1 SUBUNIT     -0.1155
10   C        28.5550   -0.5630   27.8540  C.2        1 SUBUNIT      0.0069
11   S        29.6080    0.4570   28.1910  S.3        1 SUBUNIT     -0.1468
12   C        32.4700    0.4800   28.4200  C.2        1 SUBUNIT     -0.0382
13   C        32.6800    1.3800   27.3730  C.2        1 SUBUNIT     -0.1020
14   C        33.9320    1.9870   27.2050  C.2        1 SUBUNIT     -0.1140
15   C        34.9760    1.6980   28.0990  C.2        1 SUBUNIT      0.1577
16   O        36.1910    2.2510   27.9230  O.3        1 SUBUNIT     -0.5074
17   C        34.7830    0.7840   29.1430  C.2        1 SUBUNIT     -0.1140
18   C        33.5190    0.2030   29.3110  C.2        1 SUBUNIT     -0.1020
19   C        31.6300   -1.8400   26.7020  C.2        1 SUBUNIT     -0.0493
20   C        32.6480   -2.7670   26.4480  C.2        1 SUBUNIT     -0.1012
21   C        33.0730   -3.0500   25.1480  C.2        1 SUBUNIT     -0.1123
22   C        32.4960   -2.3520   24.0600  C.2        1 SUBUNIT      0.1566
23   C        31.4550   -1.4710   24.2950  C.2        1 SUBUNIT     -0.1123
24   C        31.0470   -1.1710   25.6230  C.2        1 SUBUNIT     -0.1012
25   O        32.9110   -2.5720   22.7850  O.3        1 SUBUNIT     -0.3849
26   C        34.0020   -3.4000   22.3460  C.3        1 SUBUNIT      0.1902
27   C        33.6550   -4.3840   21.2060  C.3        1 SUBUNIT      0.1423
28   N        32.8000   -4.0120   20.0540  N.4        1 SUBUNIT     -0.3288
29   C        31.5970   -3.2410   20.3190  C.3        1 SUBUNIT      0.1543
30   C        30.5570   -3.2640   19.1770  C.3        1 SUBUNIT     -0.0698
31   C        31.1870   -2.9120   17.8130  C.3        1 SUBUNIT     -0.0584
32   C        32.4130   -3.8420   17.6170  C.3        1 SUBUNIT     -0.0698
33   C        33.4340   -3.6740   18.7760  C.3        1 SUBUNIT      0.1543
34   H        31.2276   -0.1927   29.7996  H          1 SUBUNIT      0.0427
35   H        32.1034   -2.1136   28.7398  H          1 SUBUNIT      0.0302
36   H        28.1520   -3.9435   27.7299  H          1 SUBUNIT      0.1131
37   H        26.0938   -3.2770   26.5447  H          1 SUBUNIT      0.1125
38   H        24.7394   -1.6224   26.1542  H          1 SUBUNIT      0.3867
39   H        27.0151    0.8265   27.3980  H          1 SUBUNIT      0.1117
40   H        31.8767    1.6070   26.6940  H          1 SUBUNIT      0.1115
41   H        34.0921    2.6733   26.3919  H          1 SUBUNIT      0.1114
42   H        36.8559    1.5596   27.9615  H          1 SUBUNIT      0.3860
43   H        35.5927    0.5322   29.8054  H          1 SUBUNIT      0.1114
44   H        33.3506   -0.4662   30.1366  H          1 SUBUNIT      0.1115
45   H        33.1152   -3.2745   27.2738  H          1 SUBUNIT      0.1118
46   H        33.8329   -3.7935   24.9821  H          1 SUBUNIT      0.1118
47   H        30.9587   -1.0161   23.4556  H          1 SUBUNIT      0.1118
48   H        30.2892   -0.4295   25.8067  H          1 SUBUNIT      0.1118
49   H        34.7996   -2.7295   22.0094  H          1 SUBUNIT      0.0348
50   H        34.3454   -3.9682   23.2168  H          1 SUBUNIT      0.0348
51   H        34.6055   -4.7066   20.7684  H          1 SUBUNIT      0.0402
52   H        33.1569   -5.2413   21.6708  H          1 SUBUNIT      0.0402
53   H        31.1401   -3.6501   21.2261  H          1 SUBUNIT      0.0425
54   H        31.9056   -2.2061   20.4999  H          1 SUBUNIT      0.0425
55   H        30.1209   -4.2666   19.1162  H          1 SUBUNIT      0.0576
56   H        29.7702   -2.5361   19.4008  H          1 SUBUNIT      0.0576
57   H        30.4589   -3.0764   17.0118  H          1 SUBUNIT      0.0577
58   H        31.5056   -1.8644   17.8080  H          1 SUBUNIT      0.0577
59   H        32.0714   -4.8820   17.5890  H          1 SUBUNIT      0.0576
60   H        32.9026   -3.5925   16.6699  H          1 SUBUNIT      0.0576
61   H        33.7826   -2.6370   18.8220  H          1 SUBUNIT      0.0425
62   H        34.2891   -4.3406   18.6227  H          1 SUBUNIT      0.0425
63   H        32.4512   -4.9424   19.8847  H          1 SUBUNIT      0.3329
@<TRIPOS>BOND
     1    1    2 1
     2    1   11 1
     3    1   12 1
     4    2    3 1
     5    2   19 1
     6    3    4 1
     7    4    5 1
     8    4   10 2
     9    5    6 2
    10    6    7 1
    11    7    8 1
    12    7    9 2
    13    9   10 1
    14   10   11 1
    15   12   13 2
    16   12   18 1
    17   13   14 1
    18   14   15 2
    19   15   16 1
    20   15   17 1
    21   17   18 2
    22   19   20 2
    23   19   24 1
    24   20   21 1
    25   21   22 2
    26   22   23 1
    27   22   25 1
    28   23   24 2
    29   25   26 1
    30   26   27 1
    31   27   28 1
    32   28   29 1
    33   28   33 1
    34   29   30 1
    35   30   31 1
    36   31   32 1
    37   32   33 1
    38    1   34 1
    39    2   35 1
    40    5   36 1
    41    6   37 1
    42    8   38 1
    43    9   39 1
    44   13   40 1
    45   14   41 1
    46   16   42 1
    47   17   43 1
    48   18   44 1
    49   20   45 1
    50   21   46 1
    51   23   47 1
    52   24   48 1
    53   26   49 1
    54   26   50 1
    55   27   51 1
    56   27   52 1
    57   29   53 1
    58   29   54 1
    59   30   55 1
    60   30   56 1
    61   31   57 1
    62   31   58 1
    63   32   59 1
    64   32   60 1
    65   33   61 1
    66   33   62 1
    67   28   63 1
