@<TRIPOS>MOLECULE
ZINC06503852
   29    29     0     0     0
SMALL
USER_CHARGES
3-iodo-4-methyl-N-(thiocarbamoylaminothiocarbamoyl)benzamide
@<TRIPOS>ATOM
      1 C1          1.2549   -6.4159   -0.0439 C.3       1 <0>        -0.1384
      2 C2          1.2350   -4.9090   -0.0356 C.ar      1 <0>        -0.0141
      3 C3          0.0260   -4.2362   -0.0209 C.ar      1 <0>        -0.1179
      4 C4          0.0005   -2.8572   -0.0074 C.ar      1 <0>        -0.0670
      5 C5          1.1983   -2.1396   -0.0209 C.ar      1 <0>        -0.1447
      6 C6          2.4147   -2.8240   -0.0362 C.ar      1 <0>        -0.0123
      7 C7          2.4261   -4.2042   -0.0432 C.ar      1 <0>        -0.1149
      8 I1          4.2502   -5.2344   -0.0662 I         1 <0>        -0.0175
      9 C8          1.1783   -0.6620   -0.0127 C.2       1 <0>         0.5413
     10 O1          2.2223   -0.0401   -0.0194 O.2       1 <0>        -0.3948
     11 N1          0.0021   -0.0041    0.0020 N.am      1 <0>        -0.6399
     12 C9         -0.0162    1.3436    0.0094 C.2       1 <0>         0.5146
     13 S1          1.4546    2.2196    0.0001 S.2       1 <0>        -0.4227
     14 N2         -1.1924    2.0015    0.0186 N.pl3     1 <0>        -0.4909
     15 N3         -2.3961    1.2846    0.0204 N.pl3     1 <0>        -0.5043
     16 C10        -3.5723    1.9425    0.0295 C.2       1 <0>         0.5723
     17 S2         -5.0432    1.0665    0.0318 S.2       1 <0>        -0.5598
     18 N4         -3.5906    3.2901    0.0370 N.pl3     1 <0>        -0.7931
     19 H1          1.2695   -6.7847    0.9818 H         1 <0>         0.0880
     20 H2          0.3649   -6.7882   -0.5512 H         1 <0>         0.0816
     21 H3          2.1447   -6.7646   -0.5681 H         1 <0>         0.0816
     22 H4         -0.8999   -4.7922   -0.0154 H         1 <0>         0.1442
     23 H5         -0.9439   -2.3335    0.0086 H         1 <0>         0.1277
     24 H6          3.3447   -2.2750   -0.0421 H         1 <0>         0.1489
     25 H7         -0.8313   -0.5005    0.0073 H         1 <0>         0.4044
     26 H8         -1.2056    2.9714    0.0239 H         1 <0>         0.4451
     27 H9         -2.3829    0.3147    0.0151 H         1 <0>         0.4449
     28 H10        -2.7572    3.7865    0.0357 H         1 <0>         0.3948
     29 H11        -4.4371    3.7637    0.0436 H         1 <0>         0.4428
@<TRIPOS>BOND
     1    1    2 1
     2    1   19 1
     3    1   20 1
     4    1   21 1
     5    2    7 ar
     6    2    3 ar
     7    3    4 ar
     8    3   22 1
     9    4    5 ar
    10    4   23 1
    11    5    6 ar
    12    5    9 1
    13    6    7 ar
    14    6   24 1
    15    7    8 1
    16    9   10 2
    17    9   11 am
    18   11   12 1
    19   11   25 1
    20   12   13 2
    21   12   14 1
    22   14   15 1
    23   14   26 1
    24   15   16 1
    25   15   27 1
    26   16   17 2
    27   16   18 1
    28   18   28 1
    29   18   29 1
@<TRIPOS>MOLECULE
ZINC14395035
   55    57     0     0     0
SMALL
USER_CHARGES
[4-[[[(5R)-5-tert-butyl4,5,6,7-tetrahydrobenzothiophene-2-carbonyl]amino]carbamoyl]phenyl]urea
@<TRIPOS>ATOM
      1 C1          7.5748    1.8856   -2.0264 C.3       1 <0>        -0.1460
      2 C2          7.3105    2.9819   -0.9923 C.3       1 <0>        -0.0635
      3 C3          8.1177    4.2301   -1.3548 C.3       1 <0>        -0.1456
      4 C4          7.7302    2.4877    0.3935 C.3       1 <0>        -0.1480
      5 C5          5.8193    3.3242   -0.9817 C.3       1 <0>        -0.0763
      6 H1          5.5222    3.6720   -1.9711 H         1 <0>         0.0743
      7 C6          5.5587    4.4297    0.0452 C.3       1 <0>        -0.1141
      8 C7          4.1264    4.9502   -0.1424 C.3       1 <0>        -0.0467
      9 C8          3.2039    3.7736   -0.2295 C.2       1 <0>        -0.1462
     10 C9          3.5504    2.4694   -0.4403 C.2       1 <0>        -0.1411
     11 C10         2.5166    1.5480   -0.4811 C.2       1 <0>        -0.0475
     12 C11         1.2244    2.0084   -0.3081 C.2       1 <0>        -0.2480
     13 S1          1.4868    3.7609   -0.0948 S.3       1 <0>         0.1500
     14 C12        -0.0330    1.2550   -0.3066 C.2       1 <0>         0.6122
     15 O1         -0.0205    0.0498   -0.4751 O.2       1 <0>        -0.5263
     16 N1         -1.2035    1.8978   -0.1243 N.am      1 <0>        -0.5168
     17 N2         -2.4058    1.1786   -0.1287 N.am      1 <0>        -0.5171
     18 C13        -3.5763    1.8213    0.0537 C.2       1 <0>         0.5663
     19 O2         -3.5888    3.0254    0.2220 O.2       1 <0>        -0.5328
     20 C14        -4.8427    1.0637    0.0491 C.ar      1 <0>        -0.1511
     21 C15        -4.8306   -0.3196   -0.1499 C.ar      1 <0>        -0.0603
     22 C16        -6.0132   -1.0241   -0.1478 C.ar      1 <0>        -0.1544
     23 C17        -7.2207   -0.3590    0.0406 C.ar      1 <0>         0.2000
     24 C18        -7.2369    1.0189    0.2333 C.ar      1 <0>        -0.1296
     25 C19        -6.0574    1.7286    0.2381 C.ar      1 <0>        -0.0280
     26 N3         -8.4172   -1.0749    0.0367 N.am      1 <0>        -0.6850
     27 C20        -9.5400   -0.5083   -0.4477 C.2       1 <0>         0.7050
     28 O3         -9.4909    0.5889   -0.9694 O.2       1 <0>        -0.5693
     29 N4        -10.7172   -1.1578   -0.3539 N.am      1 <0>        -0.8584
     30 C21         5.0144    2.0758   -0.6194 C.3       1 <0>        -0.0560
     31 H2          7.2758    2.2377   -3.0137 H         1 <0>         0.0548
     32 H3          8.6371    1.6418   -2.0339 H         1 <0>         0.0553
     33 H4          6.9997    0.9964   -1.7682 H         1 <0>         0.0577
     34 H5          7.9295    5.0111   -0.6181 H         1 <0>         0.0591
     35 H6          9.1801    3.9862   -1.3623 H         1 <0>         0.0553
     36 H7          7.8187    4.5822   -2.3421 H         1 <0>         0.0549
     37 H8          7.1551    1.5985    0.6517 H         1 <0>         0.0581
     38 H9          8.7925    2.2439    0.3859 H         1 <0>         0.0545
     39 H10         7.5419    3.2688    1.1301 H         1 <0>         0.0577
     40 H11         5.6724    4.0275    1.0519 H         1 <0>         0.0715
     41 H12         6.2682    5.2433   -0.1056 H         1 <0>         0.0812
     42 H13         3.8478    5.5730    0.7076 H         1 <0>         0.0866
     43 H14         4.0653    5.5340   -1.0609 H         1 <0>         0.0893
     44 H15         2.7145    0.4989   -0.6439 H         1 <0>         0.1463
     45 H16        -1.2135    2.8584    0.0100 H         1 <0>         0.4326
     46 H17        -2.3958    0.2179   -0.2629 H         1 <0>         0.4328
     47 H18        -3.8940   -0.8358   -0.3010 H         1 <0>         0.1320
     48 H19        -6.0042   -2.0937   -0.2971 H         1 <0>         0.1362
     49 H20        -8.1758    1.5321    0.3796 H         1 <0>         0.1463
     50 H21        -6.0706    2.7981    0.3880 H         1 <0>         0.1436
     51 H22        -8.4415   -1.9808    0.3827 H         1 <0>         0.4113
     52 H23       -10.7563   -2.0331    0.0623 H         1 <0>         0.4005
     53 H24       -11.5253   -0.7500   -0.7026 H         1 <0>         0.4214
     54 H25         5.3952    1.6525    0.3101 H         1 <0>         0.0824
     55 H26         5.0998    1.3409   -1.4199 H         1 <0>         0.0789
@<TRIPOS>BOND
     1    1    2 1
     2    1   31 1
     3    1   32 1
     4    1   33 1
     5    2    3 1
     6    2    4 1
     7    2    5 1
     8    3   34 1
     9    3   35 1
    10    3   36 1
    11    4   37 1
    12    4   38 1
    13    4   39 1
    14    5    6 1
    15    5   30 1
    16    5    7 1
    17    7    8 1
    18    7   40 1
    19    7   41 1
    20    8    9 1
    21    8   42 1
    22    8   43 1
    23    9   13 1
    24    9   10 2
    25   10   11 1
    26   10   30 1
    27   11   12 2
    28   11   44 1
    29   12   13 1
    30   12   14 1
    31   14   15 2
    32   14   16 am
    33   16   17 1
    34   16   45 1
    35   17   18 am
    36   17   46 1
    37   18   19 2
    38   18   20 1
    39   20   25 ar
    40   20   21 ar
    41   21   22 ar
    42   21   47 1
    43   22   23 ar
    44   22   48 1
    45   23   24 ar
    46   23   26 1
    47   24   25 ar
    48   24   49 1
    49   25   50 1
    50   26   27 am
    51   26   51 1
    52   27   28 2
    53   27   29 am
    54   29   52 1
    55   29   53 1
    56   30   54 1
    57   30   55 1
@<TRIPOS>MOLECULE
ZINC38734499
   55    58     0     0     0
SMALL
USER_CHARGES

@<TRIPOS>ATOM
      1 C1         -0.0187    1.5258    0.0104 C.3       1 <0>        -0.1666
      2 C2          0.0021   -0.0041    0.0020 C.3       1 <0>         0.1940
      3 H1          0.4987   -0.3720   -0.8958 H         1 <0>         0.0782
      4 C3         -1.4052   -0.5515    0.0887 C.2       1 <0>        -0.3094
      5 C4         -1.4863   -1.2629    1.1929 C.2       1 <0>         0.1519
      6 N1         -0.2922   -1.2737    1.8877 N.pl3     1 <0>        -0.5527
      7 N2          0.6753   -0.5155    1.2079 N.pl3     1 <0>        -0.4294
      8 C5          1.9931   -0.2930    1.5917 C.ar      1 <0>         0.2746
      9 C6          2.8238    0.4947    0.7995 C.ar      1 <0>        -0.2050
     10 C7          4.1284    0.7168    1.1766 C.ar      1 <0>         0.0006
     11 C8          4.6193    0.1509    2.3569 C.ar      1 <0>        -0.1975
     12 C9          3.7825   -0.6392    3.1505 C.ar      1 <0>        -0.0225
     13 C10         2.4774   -0.8536    2.7704 C.ar      1 <0>        -0.2096
     14 C11         6.0175    0.3866    2.7638 C.2       1 <0>         0.5767
     15 O1          6.7444    1.0737    2.0724 O.2       1 <0>        -0.5443
     16 N3          6.4893   -0.1597    3.9020 N.am      1 <0>        -0.7021
     17 C12         7.8778    0.0744    4.3062 C.3       1 <0>         0.1354
     18 H2          8.1747    1.0831    4.0191 H         1 <0>         0.1174
     19 C13         8.0006   -0.0811    5.8233 C.3       1 <0>        -0.0460
     20 C14         7.1996    0.9979    6.5053 C.2       1 <0>        -0.1774
     21 C15         5.7677    0.9579    6.8123 C.ar      1 <0>        -0.0914
     22 C16         4.7572    0.0171    6.6068 C.ar      1 <0>        -0.0781
     23 C17         3.4837    0.2877    7.0222 C.ar      1 <0>        -0.1376
     24 C18         3.1865    1.4910    7.6466 C.ar      1 <0>        -0.0985
     25 C19         4.1686    2.4337    7.8595 C.ar      1 <0>        -0.1256
     26 C20         5.4717    2.1792    7.4454 C.ar      1 <0>         0.0956
     27 N4          6.6448    2.8972    7.5112 N.pl3     1 <0>        -0.5931
     28 C21         7.6639    2.1756    6.9518 C.2       1 <0>         0.0654
     29 C22         8.7749   -0.9264    3.6244 C.2       1 <0>         0.5045
     30 O2          8.3011   -1.7537    2.8748 O.2       1 <0>        -0.5277
     31 N5         10.1039   -0.9020    3.8478 N.am      1 <0>        -0.8544
     32 C23        -2.7324   -1.9795    1.6454 C.3       1 <0>        -0.1004
     33 H3          1.0039    1.9031    0.0027 H         1 <0>         0.0643
     34 H4         -0.5459    1.8868   -0.8726 H         1 <0>         0.0733
     35 H5         -0.5289    1.8773    0.9072 H         1 <0>         0.0599
     36 H6         -2.1990   -0.3878   -0.6251 H         1 <0>         0.1543
     37 H7         -0.1428   -1.7390    2.7256 H         1 <0>         0.4247
     38 H8          2.4440    0.9316   -0.1123 H         1 <0>         0.1340
     39 H9          4.7725    1.3274    0.5612 H         1 <0>         0.1382
     40 H10         4.1588   -1.0778    4.0629 H         1 <0>         0.1213
     41 H11         1.8294   -1.4609    3.3850 H         1 <0>         0.1193
     42 H12         5.9094   -0.7078    4.4536 H         1 <0>         0.3998
     43 H13         7.6203   -1.0585    6.1203 H         1 <0>         0.0829
     44 H14         9.0476    0.0051    6.1139 H         1 <0>         0.0926
     45 H15         4.9810   -0.9211    6.1209 H         1 <0>         0.1133
     46 H16         2.7022   -0.4406    6.8629 H         1 <0>         0.1216
     47 H17         2.1751    1.6906    7.9687 H         1 <0>         0.1246
     48 H18         3.9273    3.3672    8.3460 H         1 <0>         0.1195
     49 H19         8.6895    2.5058    6.8779 H         1 <0>         0.1716
     50 H20         6.7359    3.7812    7.9000 H         1 <0>         0.4175
     51 H21        10.4828   -0.2404    4.4474 H         1 <0>         0.4005
     52 H22        10.6813   -1.5462    3.4090 H         1 <0>         0.4029
     53 H23        -2.7394   -2.9898    1.2364 H         1 <0>         0.0815
     54 H24        -2.7484   -2.0281    2.7342 H         1 <0>         0.0698
     55 H25        -3.6108   -1.4388    1.2929 H         1 <0>         0.0878
@<TRIPOS>BOND
     1    1    2 1
     2    1   33 1
     3    1   34 1
     4    1   35 1
     5    2    3 1
     6    2    7 1
     7    2    4 1
     8    4    5 2
     9    4   36 1
    10    5    6 1
    11    5   32 1
    12    6    7 1
    13    6   37 1
    14    7    8 1
    15    8   13 ar
    16    8    9 ar
    17    9   10 ar
    18    9   38 1
    19   10   11 ar
    20   10   39 1
    21   11   12 ar
    22   11   14 1
    23   12   13 ar
    24   12   40 1
    25   13   41 1
    26   14   15 2
    27   14   16 am
    28   16   17 1
    29   16   42 1
    30   17   18 1
    31   17   19 1
    32   17   29 1
    33   19   43 1
    34   19   44 1
    35   19   20 1
    36   20   21 1
    37   20   28 2
    38   21   22 ar
    39   21   26 ar
    40   22   23 ar
    41   22   45 1
    42   23   24 ar
    43   23   46 1
    44   24   25 ar
    45   24   47 1
    46   25   26 ar
    47   25   48 1
    48   26   27 1
    49   27   50 1
    50   27   28 1
    51   28   49 1
    52   29   30 2
    53   29   31 am
    54   31   51 1
    55   31   52 1
    56   32   53 1
    57   32   54 1
    58   32   55 1
@<TRIPOS>MOLECULE
ZINC40761077
   42    45     0     0     0
SMALL
USER_CHARGES

@<TRIPOS>ATOM
      1 C1         -0.0166    1.3743    0.0096 C.ar      1 <0>        -0.1357
      2 C2          1.1702    2.0874    0.0021 C.ar      1 <0>        -0.0573
      3 C3          2.3828    1.4246   -0.0130 C.ar      1 <0>        -0.1631
      4 C4          2.4179    0.0418   -0.0207 C.ar      1 <0>         0.1653
      5 C5          1.2223   -0.6832   -0.0132 C.ar      1 <0>        -0.1694
      6 C6          0.0021   -0.0041    0.0020 C.ar      1 <0>        -0.0566
      7 C7          1.2498   -2.1599   -0.0218 C.2       1 <0>         0.5586
      8 O1          2.3137   -2.7480   -0.0355 O.2       1 <0>        -0.5273
      9 N1          0.0954   -2.8554   -0.0145 N.am      1 <0>        -0.5041
     10 N2          0.1214   -4.2561   -0.0227 N.pl3     1 <0>        -0.5092
     11 C8         -1.0688   -4.9732   -0.0152 C.ar      1 <0>         0.4044
     12 C9         -1.0554   -6.3700   -0.0174 C.ar      1 <0>         0.0348
     13 C10        -2.2790   -7.0406   -0.0097 C.ar      1 <0>         0.3787
     14 N3         -3.4041   -6.3293   -0.0005 N.ar      1 <0>        -0.5062
     15 C11        -3.3727   -5.0123    0.0013 C.ar      1 <0>         0.3275
     16 N4         -2.2389   -4.3402   -0.0002 N.ar      1 <0>        -0.5673
     17 N5         -2.3225   -8.4316   -0.0119 N.pl3     1 <0>        -0.5899
     18 C12        -3.5402   -9.0848   -0.0042 C.2       1 <0>         0.3891
     19 N6         -4.7498   -8.5727   -0.0001 N.2       1 <0>        -0.5016
     20 C13        -5.8620   -9.3393    0.0071 C.ar      1 <0>         0.1096
     21 C14        -7.2120   -8.9186    0.0125 C.ar      1 <0>        -0.0691
     22 C15        -8.2310   -9.8350    0.0201 C.ar      1 <0>        -0.1050
     23 C16        -7.9790  -11.1992    0.0232 C.ar      1 <0>        -0.1071
     24 C17        -6.6703  -11.6461    0.0181 C.ar      1 <0>        -0.0605
     25 C18        -5.6435  -10.7357    0.0100 C.ar      1 <0>        -0.1526
     26 S1         -3.8700  -10.8413   -0.0050 S.3       1 <0>        -0.0126
     27 N7          0.1558   -7.0796   -0.0277 N.pl3     1 <0>        -0.8732
     28 F1          3.6033   -0.6060   -0.0359 F         1 <0>        -0.1129
     29 H1         -0.9601    1.8997    0.0259 H         1 <0>         0.1409
     30 H2          1.1482    3.1672    0.0077 H         1 <0>         0.1418
     31 H3          3.3047    1.9872   -0.0191 H         1 <0>         0.1464
     32 H4         -0.9252   -0.5577    0.0082 H         1 <0>         0.1382
     33 H5         -0.7535   -2.3862   -0.0036 H         1 <0>         0.4334
     34 H6          0.9703   -4.7254   -0.0336 H         1 <0>         0.4391
     35 H7         -4.3046   -4.4666    0.0089 H         1 <0>         0.2031
     36 H8         -1.4981   -8.9426   -0.0190 H         1 <0>         0.4339
     37 H9         -7.4426   -7.8635    0.0109 H         1 <0>         0.1340
     38 H10        -9.2535   -9.4872    0.0241 H         1 <0>         0.1336
     39 H11        -8.7965  -11.9050    0.0300 H         1 <0>         0.1377
     40 H12        -6.4576  -12.7050    0.0205 H         1 <0>         0.1318
     41 H13         0.9989   -6.5999   -0.0334 H         1 <0>         0.4009
     42 H14         0.1497   -8.0496   -0.0292 H         1 <0>         0.3977
@<TRIPOS>BOND
     1    1    6 ar
     2    1    2 ar
     3    1   29 1
     4    2    3 ar
     5    2   30 1
     6    3    4 ar
     7    3   31 1
     8    4    5 ar
     9    4   28 1
    10    5    6 ar
    11    5    7 1
    12    6   32 1
    13    7    8 2
    14    7    9 am
    15    9   10 1
    16    9   33 1
    17   10   11 1
    18   10   34 1
    19   11   16 ar
    20   11   12 ar
    21   12   13 ar
    22   12   27 1
    23   13   14 ar
    24   13   17 1
    25   14   15 ar
    26   15   16 ar
    27   15   35 1
    28   17   18 1
    29   17   36 1
    30   18   26 1
    31   18   19 2
    32   19   20 1
    33   20   25 ar
    34   20   21 ar
    35   21   22 ar
    36   21   37 1
    37   22   23 ar
    38   22   38 1
    39   23   24 ar
    40   23   39 1
    41   24   25 ar
    42   24   40 1
    43   25   26 1
    44   27   41 1
    45   27   42 1
@<TRIPOS>MOLECULE
ZINC50557364
   41    42     0     0     0
SMALL
USER_CHARGES

@<TRIPOS>ATOM
      1 C1          1.4482    0.4318   -1.5821 C.3       1 <0>         0.1041
      2 N1          0.6825   -0.4966   -0.7465 N.am      1 <0>        -0.7450
      3 C2          1.2953   -1.1727    0.2453 C.2       1 <0>         0.7014
      4 O1          2.4837   -1.0122    0.4466 O.2       1 <0>        -0.5705
      5 N2          0.5910   -2.0268    1.0140 N.am      1 <0>        -0.6861
      6 C3          1.2449   -2.8012    1.9807 C.ar      1 <0>         0.1572
      7 C4          0.8109   -4.0938    2.2448 C.ar      1 <0>        -0.1283
      8 C5          1.4548   -4.8570    3.1976 C.ar      1 <0>        -0.0958
      9 C6          2.5376   -4.3322    3.8923 C.ar      1 <0>         0.1149
     10 C7          2.9718   -3.0393    3.6276 C.ar      1 <0>        -0.1132
     11 C8          2.3308   -2.2784    2.6710 C.ar      1 <0>        -0.1005
     12 N3          3.1899   -5.1051    4.8581 N.am      1 <0>        -0.6337
     13 C9          3.3185   -6.4352    4.6826 C.2       1 <0>         0.5232
     14 O2          2.7962   -6.9749    3.7290 O.2       1 <0>        -0.4963
     15 C10         4.1036   -7.2450    5.6613 C.2       1 <0>         0.5071
     16 O3          4.6258   -6.7054    6.6148 O.2       1 <0>        -0.5104
     17 N4          4.2323   -8.5750    5.4858 N.am      1 <0>        -0.4878
     18 N5          4.9688   -9.3348    6.4040 N.pl3     1 <0>        -0.5295
     19 C11         5.1023  -10.7146    6.2219 C.ar      1 <0>         0.2286
     20 C12         4.5101  -11.3325    5.1284 C.ar      1 <0>        -0.1751
     21 C13         4.6434  -12.6958    4.9508 C.ar      1 <0>        -0.0467
     22 C14         5.3659  -13.4465    5.8615 C.ar      1 <0>        -0.0767
     23 C15         5.9570  -12.8344    6.9526 C.ar      1 <0>        -0.0454
     24 C16         5.8326  -11.4696    7.1319 C.ar      1 <0>        -0.0937
     25 Cl1         6.5812  -10.7005    8.4964 Cl        1 <0>        -0.0494
     26 Cl2         5.5305  -15.1598    5.6350 Cl        1 <0>        -0.0574
     27 H1          2.2480   -0.1094   -2.0874 H         1 <0>         0.0614
     28 H2          0.7884    0.8814   -2.3241 H         1 <0>         0.0790
     29 H3          1.8777    1.2141   -0.9563 H         1 <0>         0.0615
     30 H4         -0.2655   -0.6246   -0.9071 H         1 <0>         0.4001
     31 H5         -0.3688   -2.1052    0.8978 H         1 <0>         0.4083
     32 H6         -0.0308   -4.5017    1.7047 H         1 <0>         0.1319
     33 H7          1.1168   -5.8619    3.4034 H         1 <0>         0.1444
     34 H8          3.8132   -2.6310    4.1677 H         1 <0>         0.1335
     35 H9          2.6708   -1.2748    2.4623 H         1 <0>         0.1481
     36 H10         3.5498   -4.6839    5.6544 H         1 <0>         0.4252
     37 H11         3.8149   -9.0063    4.7238 H         1 <0>         0.4365
     38 H12         5.3862   -8.9035    7.1660 H         1 <0>         0.4411
     39 H13         3.9454  -10.7476    4.4174 H         1 <0>         0.1382
     40 H14         4.1829  -13.1765    4.1004 H         1 <0>         0.1455
     41 H15         6.5197  -13.4228    7.6622 H         1 <0>         0.1501
@<TRIPOS>BOND
     1    1    2 1
     2    1   27 1
     3    1   28 1
     4    1   29 1
     5    2    3 am
     6    2   30 1
     7    3    4 2
     8    3    5 am
     9    5    6 1
    10    5   31 1
    11    6   11 ar
    12    6    7 ar
    13    7    8 ar
    14    7   32 1
    15    8    9 ar
    16    8   33 1
    17    9   10 ar
    18    9   12 1
    19   10   11 ar
    20   10   34 1
    21   11   35 1
    22   12   13 am
    23   12   36 1
    24   13   14 2
    25   13   15 1
    26   15   16 2
    27   15   17 am
    28   17   18 1
    29   17   37 1
    30   18   19 1
    31   18   38 1
    32   19   24 ar
    33   19   20 ar
    34   20   21 ar
    35   20   39 1
    36   21   22 ar
    37   21   40 1
    38   22   23 ar
    39   22   26 1
    40   23   24 ar
    41   23   41 1
    42   24   25 1
@<TRIPOS>MOLECULE
ZINC04477457
   36    38     0     0     0
SMALL
USER_CHARGES
2,4-dichloro-N-(3,5-diimino-1-phenyl-pyrazolidin-4-ylidene)amino-aniline
@<TRIPOS>ATOM
      1 C1          4.2970   -3.1054   -0.0483 C.ar      1 <0>        -0.1213
      2 C2          2.9164   -3.1823   -0.0347 C.ar      1 <0>        -0.0832
      3 C3          2.1589   -2.0275   -0.0229 C.ar      1 <0>        -0.1586
      4 C4          2.7854   -0.7879   -0.0243 C.ar      1 <0>         0.1535
      5 C5          4.1723   -0.7141   -0.0434 C.ar      1 <0>        -0.1299
      6 C6          4.9239   -1.8727   -0.0497 C.ar      1 <0>        -0.0795
      7 N1          2.0217    0.3831   -0.0124 N.pl3     1 <0>        -0.3328
      8 C7          2.5394    1.6617   -0.0121 C.2       1 <0>         0.4759
      9 N2          3.8036    1.9878   -0.0234 N.2       1 <0>        -0.6393
     10 C8          1.3900    2.5932    0.0025 C.2       1 <0>        -0.0740
     11 N3          1.4290    3.9056    0.0074 N.2       1 <0>        -0.0396
     12 N4          0.3315    4.5833    0.0210 N.pl3     1 <0>        -0.4463
     13 C9          0.3728    5.9788    0.0262 C.ar      1 <0>         0.1301
     14 C10         1.5955    6.6393    0.0226 C.ar      1 <0>        -0.0847
     15 C11         1.6333    8.0194    0.0230 C.ar      1 <0>        -0.0707
     16 C12         0.4551    8.7460    0.0380 C.ar      1 <0>        -0.0190
     17 C13        -0.7645    8.0923    0.0464 C.ar      1 <0>        -0.0672
     18 C14        -0.8094    6.7110    0.0408 C.ar      1 <0>        -0.0445
     19 Cl1        -2.3395    5.8910    0.0525 Cl        1 <0>        -0.0451
     20 Cl2         0.5076   10.4811    0.0457 Cl        1 <0>        -0.0213
     21 C15         0.1874    1.7312    0.0103 C.cat     1 <0>         0.5289
     22 N5          0.6273    0.4251    0.0009 N.pl3     1 <0>        -0.4094
     23 H1          4.8870   -4.0099   -0.0574 H         1 <0>         0.1360
     24 H2          2.4298   -4.1465   -0.0336 H         1 <0>         0.1376
     25 H3          1.0806   -2.0883   -0.0129 H         1 <0>         0.1182
     26 H4          4.6626    0.2482   -0.0494 H         1 <0>         0.1761
     27 H5          6.0024   -1.8161   -0.0600 H         1 <0>         0.1420
     28 H6          4.0633    2.9224   -0.0220 H         1 <0>         0.3821
     29 H7         -0.5225    4.1234    0.0275 H         1 <0>         0.3760
     30 H8          2.5155    6.0734    0.0158 H         1 <0>         0.1647
     31 H9          2.5834    8.5329    0.0157 H         1 <0>         0.1632
     32 H10        -1.6820    8.6618    0.0578 H         1 <0>         0.1660
     33 H11        -1.8437    1.5582    0.0201 H         1 <0>         0.4553
     34 H12         0.0495   -0.3540    0.0035 H         1 <0>         0.4697
     35 N6         -1.0531    2.2027    0.0192 N.pl3     1 <0>        -0.7495
     36 H13        -1.2170    3.2163    0.0252 H         1 <0>         0.4407
@<TRIPOS>BOND
     1    1    6 ar
     2    1    2 ar
     3    1   23 1
     4    2    3 ar
     5    2   24 1
     6    3    4 ar
     7    3   25 1
     8    4    5 ar
     9    4    7 1
    10    5    6 ar
    11    5   26 1
    12    6   27 1
    13    7   22 1
    14    7    8 1
    15    8    9 2
    16    8   10 1
    17    9   28 1
    18   10   11 2
    19   10   21 1
    20   11   12 1
    21   12   13 1
    22   12   29 1
    23   13   18 ar
    24   13   14 ar
    25   14   15 ar
    26   14   30 1
    27   15   16 ar
    28   15   31 1
    29   16   17 ar
    30   16   20 1
    31   17   18 ar
    32   17   32 1
    33   18   19 1
    34   21   22 1
    35   21   35 2
    36   22   34 1
    37   33   35 1
    38   35   36 1
@<TRIPOS>MOLECULE
ZINC37801233
   39    40     0     0     0
SMALL
USER_CHARGES

@<TRIPOS>ATOM
      1 C1         -0.0163    1.3513    0.0095 C.2       1 <0>        -0.1690
      2 C2          1.1833    2.0380    0.0017 C.2       1 <0>        -0.1170
      3 C3          2.3426    1.3358   -0.0131 C.2       1 <0>        -0.1973
      4 S1          1.7535   -0.3495   -0.0166 S.3       1 <0>         0.0492
      5 C4          0.0021   -0.0041    0.0020 C.2       1 <0>        -0.1482
      6 C5          3.7608    1.8454   -0.0244 C.3       1 <0>         0.2005
      7 N1          4.2338    2.0036    1.3531 N.am      1 <0>        -0.5755
      8 C6          4.8992    0.8887    2.0317 C.3       1 <0>         0.1782
      9 C7          6.3834    0.9618    1.7808 C.2       1 <0>        -0.2110
     10 C8          7.3412    1.5925    2.5034 C.2       1 <0>        -0.1330
     11 C9          8.6551    1.5236    2.0794 C.2       1 <0>        -0.1711
     12 C10         8.9468    0.8273    0.9537 C.2       1 <0>        -0.1446
     13 S2          7.3374    0.2337    0.4591 S.3       1 <0>         0.0875
     14 C11         4.0567    3.1747    1.9962 C.2       1 <0>         0.5107
     15 O1          3.5057    4.0977    1.4344 O.2       1 <0>        -0.5070
     16 C12         4.5432    3.3374    3.4132 C.3       1 <0>         0.0168
     17 H1          5.5106    2.8475    3.5236 H         1 <0>         0.1710
     18 C13         3.5368    2.7014    4.3741 C.3       1 <0>        -0.1751
     19 C14         4.0805    2.7548    5.7786 C.2       1 <0>         0.5174
     20 O2          5.1660    3.2526    5.9902 O.2       1 <0>        -0.5528
     21 N2          3.3604    2.2494    6.7997 N.am      1 <0>        -0.8277
     22 N3          4.6800    4.7669    3.7228 N.4       1 <0>        -0.6180
     23 H2         -0.9542    1.8866    0.0258 H         1 <0>         0.1385
     24 H3          1.1967    3.1179    0.0070 H         1 <0>         0.1356
     25 H4         -0.8275   -0.6955    0.0065 H         1 <0>         0.1907
     26 H5          4.3986    1.1333   -0.5480 H         1 <0>         0.1066
     27 H6          3.7967    2.8084   -0.5337 H         1 <0>         0.1179
     28 H7          4.7084    0.9495    3.1031 H         1 <0>         0.1026
     29 H8          4.5117   -0.0545    1.6465 H         1 <0>         0.1166
     30 H9          7.0816    2.1410    3.3968 H         1 <0>         0.1254
     31 H10         9.4374    2.0174    2.6367 H         1 <0>         0.1410
     32 H11         9.9049    0.6695    0.4807 H         1 <0>         0.1937
     33 H12         2.5950    3.2481    4.3281 H         1 <0>         0.1363
     34 H13         3.3684    1.6629    4.0890 H         1 <0>         0.1484
     35 H14         2.4922    1.8513    6.6305 H         1 <0>         0.4139
     36 H15         3.7103    2.2838    7.7037 H         1 <0>         0.4201
     37 H16         3.7845    5.2203    3.6206 H         1 <0>         0.4387
     38 H17         5.0058    4.8758    4.6716 H         1 <0>         0.4475
     39 H18         5.3437    5.1863    3.0891 H         1 <0>         0.4425
@<TRIPOS>BOND
     1    1    5 2
     2    1    2 1
     3    1   23 1
     4    2    3 2
     5    2   24 1
     6    3    4 1
     7    3    6 1
     8    4    5 1
     9    5   25 1
    10    6    7 1
    11    6   26 1
    12    6   27 1
    13    7    8 1
    14    7   14 am
    15    8    9 1
    16    8   28 1
    17    8   29 1
    18    9   13 1
    19    9   10 2
    20   10   11 1
    21   10   30 1
    22   11   12 2
    23   11   31 1
    24   12   13 1
    25   12   32 1
    26   14   15 2
    27   14   16 1
    28   16   17 1
    29   16   18 1
    30   16   22 1
    31   18   19 1
    32   18   33 1
    33   18   34 1
    34   19   20 2
    35   19   21 am
    36   21   35 1
    37   21   36 1
    38   22   37 1
    39   22   38 1
    40   22   39 1
@<TRIPOS>MOLECULE
ZINC43242773
   49    50     0     0     0
SMALL
USER_CHARGES

@<TRIPOS>ATOM
      1 C1         -1.9454    1.3689   -1.5198 C.3       1 <0>        -0.1721
      2 C2         -2.1024   -0.1382   -1.3078 C.3       1 <0>        -0.1473
      3 C3         -1.5067   -0.5275    0.0466 C.3       1 <0>         0.0356
      4 H1         -0.4798   -0.1673    0.1089 H         1 <0>         0.1515
      5 C4         -1.5226   -2.0505    0.1920 C.3       1 <0>         0.1541
      6 H2         -0.9285   -2.4978   -0.6050 H         1 <0>         0.1063
      7 C5         -2.9418   -2.5490    0.1008 C.2       1 <0>        -0.2154
      8 C6         -3.5844   -3.1072   -0.9542 C.2       1 <0>        -0.0948
      9 C7         -4.9029   -3.4952   -0.8071 C.2       1 <0>        -0.1766
     10 C8         -5.5144   -3.3060    0.3877 C.2       1 <0>        -0.0963
     11 S1         -4.2107   -2.5649    1.3565 S.3       1 <0>         0.0383
     12 C9         -6.9265   -3.6398    0.7945 C.3       1 <0>        -0.0857
     13 N1         -0.9551   -2.4241    1.4944 N.3       1 <0>        -0.5471
     14 C10         0.3770   -1.8337    1.6769 C.3       1 <0>         0.0388
     15 C11         0.8740   -2.1215    3.0954 C.3       1 <0>        -0.1133
     16 C12         0.9323   -3.6360    3.3131 C.3       1 <0>        -0.0752
     17 C13        -0.4568   -4.2325    3.0698 C.3       1 <0>        -0.1164
     18 C14        -0.9153   -3.8835    1.6520 C.3       1 <0>         0.0607
     19 C15         1.3703   -3.9296    4.7494 C.3       1 <0>        -0.1398
     20 C16         1.5460   -5.4157    4.9271 C.2       1 <0>         0.5143
     21 O1          1.3410   -6.1661    3.9967 O.2       1 <0>        -0.5413
     22 N2          1.9309   -5.9109    6.1201 N.am      1 <0>        -0.8562
     23 N3         -2.3034    0.0755    1.1235 N.4       1 <0>        -0.6326
     24 H3         -2.3698    1.6462   -2.4847 H         1 <0>         0.0850
     25 H4         -2.4672    1.9037   -0.7262 H         1 <0>         0.0527
     26 H5         -0.8874    1.6304   -1.4995 H         1 <0>         0.0730
     27 H6         -3.1603   -0.3997   -1.3281 H         1 <0>         0.0921
     28 H7         -1.5806   -0.6730   -2.1015 H         1 <0>         0.1124
     29 H8         -3.0738   -3.2464   -1.8957 H         1 <0>         0.1390
     30 H9         -5.4380   -3.9420   -1.6320 H         1 <0>         0.1441
     31 H10        -6.9588   -4.6519    1.1978 H         1 <0>         0.0904
     32 H11        -7.2619   -2.9347    1.5551 H         1 <0>         0.0803
     33 H12        -7.5803   -3.5742   -0.0752 H         1 <0>         0.0914
     34 H13         1.0686   -2.2676    0.9547 H         1 <0>         0.0549
     35 H14         0.3208   -0.7560    1.5234 H         1 <0>         0.0711
     36 H15         1.8694   -1.6966    3.2255 H         1 <0>         0.0781
     37 H16         0.1903   -1.6759    3.8180 H         1 <0>         0.0747
     38 H17         1.6452   -4.0770    2.6165 H         1 <0>         0.0804
     39 H18        -0.4123   -5.3158    3.1816 H         1 <0>         0.0939
     40 H19        -1.1615   -3.8202    3.7920 H         1 <0>         0.0681
     41 H20        -1.9101   -4.2946    1.4805 H         1 <0>         0.0840
     42 H21        -0.2176   -4.3078    0.9300 H         1 <0>         0.0472
     43 H22         2.3154   -3.4253    4.9513 H         1 <0>         0.0970
     44 H23         0.6104   -3.5681    5.4421 H         1 <0>         0.0963
     45 H24         2.0949   -5.3107    6.8642 H         1 <0>         0.4030
     46 H25         2.0440   -6.8674    6.2345 H         1 <0>         0.4046
     47 H26        -3.2539   -0.2579    1.0657 H         1 <0>         0.4262
     48 H27        -1.9105   -0.1812    2.0167 H         1 <0>         0.4394
     49 H28        -2.2929    1.0799    1.0276 H         1 <0>         0.4313
@<TRIPOS>BOND
     1    1    2 1
     2    1   24 1
     3    1   25 1
     4    1   26 1
     5    2    3 1
     6    2   27 1
     7    2   28 1
     8    3    4 1
     9    3    5 1
    10    3   23 1
    11    5    6 1
    12    5    7 1
    13    5   13 1
    14    7   11 1
    15    7    8 2
    16    8    9 1
    17    8   29 1
    18    9   10 2
    19    9   30 1
    20   10   11 1
    21   10   12 1
    22   12   31 1
    23   12   32 1
    24   12   33 1
    25   13   18 1
    26   13   14 1
    27   14   15 1
    28   14   34 1
    29   14   35 1
    30   15   16 1
    31   15   36 1
    32   15   37 1
    33   16   17 1
    34   16   19 1
    35   16   38 1
    36   17   18 1
    37   17   39 1
    38   17   40 1
    39   18   41 1
    40   18   42 1
    41   19   20 1
    42   19   43 1
    43   19   44 1
    44   20   21 2
    45   20   22 am
    46   22   45 1
    47   22   46 1
    48   23   47 1
    49   23   48 1
    50   23   49 1
@<TRIPOS>MOLECULE
ZINC49068521
   49    51     0     0     0
SMALL
USER_CHARGES

@<TRIPOS>ATOM
      1 C1         -1.3607    1.5129   -0.4574 C.3       1 <0>        -0.1545
      2 C2         -1.2137   -0.0100   -0.4624 C.3       1 <0>        -0.0937
      3 C3         -0.0668   -0.4148    0.4659 C.3       1 <0>        -0.1689
      4 C4         -2.5150   -0.6496    0.0260 C.3       1 <0>        -0.1291
      5 C5         -2.4121   -2.1510   -0.0897 C.ar      1 <0>         0.0983
      6 C6         -2.6927   -2.7476   -1.3291 C.ar      1 <0>        -0.0888
      7 C7         -2.6141   -4.1192   -1.4100 C.ar      1 <0>         0.2272
      8 N1         -2.2480   -4.8388   -0.3524 N.ar      1 <0>        -0.4355
      9 C8         -1.9641   -4.3126    0.8083 C.ar      1 <0>         0.0826
     10 C9         -2.0365   -2.9150    1.0346 C.ar      1 <0>        -0.1341
     11 C10        -1.7117   -2.5113    2.3934 C.2       1 <0>         0.2994
     12 C11        -1.3557   -3.4838    3.3088 C.2       1 <0>        -0.3217
     13 S1         -1.4483   -4.9899    2.3662 S.3       1 <0>         0.2426
     14 C12        -1.0027   -3.3133    4.6704 C.2       1 <0>         0.6175
     15 O1         -0.9903   -2.1989    5.1613 O.2       1 <0>        -0.5302
     16 N2         -0.6806   -4.3845    5.4222 N.am      1 <0>        -0.8439
     17 N3         -1.7441   -1.1905    2.8198 N.pl3     1 <0>        -0.8181
     18 C13        -2.9352   -4.9537   -2.6254 C.3       1 <0>        -0.1070
     19 C14        -1.8408   -4.8760   -3.6719 C.3       1 <0>        -0.1244
     20 C15        -1.0852   -3.5555   -3.6580 C.3       1 <0>        -0.1300
     21 C16        -1.9468   -2.6109   -4.4661 C.3       1 <0>        -0.1299
     22 C17        -3.2756   -2.2994   -3.7855 C.3       1 <0>        -0.1309
     23 C18        -3.0417   -1.7365   -2.3955 C.3       1 <0>        -0.0848
     24 H1         -0.4336    1.9685   -0.8054 H         1 <0>         0.0719
     25 H2         -2.1778    1.8012   -1.1187 H         1 <0>         0.0667
     26 H3         -1.5754    1.8539    0.5554 H         1 <0>         0.0626
     27 H4         -0.9991   -0.3511   -1.4752 H         1 <0>         0.0886
     28 H5         -0.2030    0.0573    1.4389 H         1 <0>         0.0652
     29 H6         -0.0610   -1.4982    0.5853 H         1 <0>         0.0492
     30 H7          0.8808   -0.0917    0.0348 H         1 <0>         0.0780
     31 H8         -2.6857   -0.3763    1.0673 H         1 <0>         0.0991
     32 H9         -3.3457   -0.2943   -0.5837 H         1 <0>         0.1181
     33 H10        -0.6904   -5.2721    5.0312 H         1 <0>         0.3993
     34 H11        -0.4389   -4.2678    6.3544 H         1 <0>         0.4180
     35 H12        -1.6094   -0.4717    2.1826 H         1 <0>         0.4076
     36 H13        -1.9013   -0.9864    3.7550 H         1 <0>         0.4308
     37 H14        -3.0263   -6.0034   -2.3030 H         1 <0>         0.0987
     38 H15        -3.8941   -4.6664   -3.0432 H         1 <0>         0.1301
     39 H16        -1.1294   -5.6892   -3.4997 H         1 <0>         0.0734
     40 H17        -2.2839   -5.0199   -4.6608 H         1 <0>         0.0966
     41 H18        -0.9369   -3.1887   -2.6469 H         1 <0>         0.0620
     42 H19        -0.1110   -3.6783   -4.1453 H         1 <0>         0.0823
     43 H20        -1.4000   -1.6780   -4.6207 H         1 <0>         0.0671
     44 H21        -2.1447   -3.0590   -5.4423 H         1 <0>         0.0758
     45 H22        -3.7959   -1.5343   -4.3820 H         1 <0>         0.0846
     46 H23        -3.9093   -3.1742   -3.7496 H         1 <0>         0.0761
     47 H24        -3.9497   -1.2056   -2.0979 H         1 <0>         0.1025
     48 H25        -2.2246   -1.0126   -2.4797 H         1 <0>         0.1055
     49 H26        -2.1888   -5.8034   -0.4523 H         1 <0>         0.4482
@<TRIPOS>BOND
     1    1    2 1
     2    1   24 1
     3    1   25 1
     4    1   26 1
     5    2    3 1
     6    2    4 1
     7    2   27 1
     8    3   28 1
     9    3   29 1
    10    3   30 1
    11    4    5 1
    12    4   31 1
    13    4   32 1
    14    5   10 ar
    15    5    6 ar
    16    6   23 1
    17    6    7 ar
    18    7    8 ar
    19    7   18 1
    20    8    9 ar
    21    8   49 1
    22    9   13 1
    23    9   10 ar
    24   10   11 1
    25   11   12 2
    26   11   17 1
    27   12   13 1
    28   12   14 1
    29   14   15 2
    30   14   16 am
    31   16   33 1
    32   16   34 1
    33   17   35 1
    34   17   36 1
    35   18   19 1
    36   18   37 1
    37   18   38 1
    38   19   20 1
    39   19   39 1
    40   19   40 1
    41   20   21 1
    42   20   41 1
    43   20   42 1
    44   21   22 1
    45   21   43 1
    46   21   44 1
    47   22   23 1
    48   22   45 1
    49   22   46 1
    50   23   47 1
    51   23   48 1
@<TRIPOS>MOLECULE
ZINC42952163
   46    47     0     0     0
SMALL
USER_CHARGES

@<TRIPOS>ATOM
      1 C1          2.2698    1.4187   -0.8656 C.3       1 <0>        -0.1722
      2 C2          2.1888   -0.0817   -1.1539 C.3       1 <0>        -0.1489
      3 C3          0.7237   -0.4911   -1.3180 C.3       1 <0>         0.0369
      4 H1          0.1565   -0.1692   -0.4447 H         1 <0>         0.1500
      5 C4          0.6314   -2.0122   -1.4539 C.3       1 <0>         0.1046
      6 H2          1.0355   -2.4823   -0.5574 H         1 <0>         0.1015
      7 C5          1.4238   -2.4582   -2.6557 C.ar      1 <0>        -0.1027
      8 C6          0.8826   -2.3413   -3.9224 C.ar      1 <0>        -0.1246
      9 C7          1.6092   -2.7498   -5.0250 C.ar      1 <0>        -0.0819
     10 C8          2.8780   -3.2757   -4.8607 C.ar      1 <0>        -0.0783
     11 C9          3.4191   -3.3925   -3.5931 C.ar      1 <0>        -0.0767
     12 C10         2.6938   -2.9788   -2.4915 C.ar      1 <0>        -0.0921
     13 Br1         3.8723   -3.8353   -6.3687 Br        1 <0>        -0.0239
     14 N1         -0.7744   -2.4045   -1.6213 N.3       1 <0>        -0.5468
     15 C11        -1.6073   -1.8484   -0.5473 C.3       1 <0>         0.0327
     16 C12        -3.0797   -2.1535   -0.8319 C.3       1 <0>        -0.1150
     17 C13        -3.2738   -3.6697   -0.9206 C.3       1 <0>        -0.1189
     18 C14        -2.3596   -4.2303   -2.0136 C.3       1 <0>        -0.1036
     19 H3         -2.6393   -3.8030   -2.9765 H         1 <0>         0.1083
     20 C15        -0.9081   -3.8650   -1.6947 C.3       1 <0>         0.0763
     21 C16        -2.5015   -5.7296   -2.0682 C.2       1 <0>         0.5198
     22 O1         -1.5360   -6.4376   -1.8746 O.2       1 <0>        -0.5391
     23 N2         -3.7014   -6.2837   -2.3321 N.am      1 <0>        -0.8511
     24 N3          0.1702    0.1426   -2.5222 N.4       1 <0>        -0.6346
     25 H4          1.8286    1.9722   -1.6945 H         1 <0>         0.0529
     26 H5          1.7251    1.6424    0.0516 H         1 <0>         0.0728
     27 H6          3.3136    1.7103   -0.7487 H         1 <0>         0.0854
     28 H7          2.7335   -0.3055   -2.0711 H         1 <0>         0.0930
     29 H8          2.6300   -0.6353   -0.3250 H         1 <0>         0.1131
     30 H9         -0.1082   -1.9311   -4.0505 H         1 <0>         0.1361
     31 H10         1.1862   -2.6588   -6.0145 H         1 <0>         0.1419
     32 H11         4.4097   -3.8030   -3.4644 H         1 <0>         0.1433
     33 H12         3.1178   -3.0662   -1.5021 H         1 <0>         0.1385
     34 H13        -1.3207   -2.2970    0.4039 H         1 <0>         0.0561
     35 H14        -1.4631   -0.7691   -0.4977 H         1 <0>         0.0734
     36 H15        -3.6963   -1.7542   -0.0267 H         1 <0>         0.0832
     37 H16        -3.3707   -1.6935   -1.7763 H         1 <0>         0.0767
     38 H17        -3.0199   -4.1261    0.0361 H         1 <0>         0.0720
     39 H18        -4.3126   -3.8902   -1.1661 H         1 <0>         0.0788
     40 H19        -0.2560   -4.2504   -2.4785 H         1 <0>         0.0945
     41 H20        -0.6248   -4.3042   -0.7382 H         1 <0>         0.0568
     42 H21        -4.4736   -5.7175   -2.4869 H         1 <0>         0.4028
     43 H22        -3.7928   -7.2488   -2.3673 H         1 <0>         0.4076
     44 H23         0.6953   -0.1553   -3.3307 H         1 <0>         0.4306
     45 H24        -0.7959   -0.1274   -2.6305 H         1 <0>         0.4388
     46 H25         0.2311    1.1458   -2.4326 H         1 <0>         0.4321
@<TRIPOS>BOND
     1    1    2 1
     2    1   25 1
     3    1   26 1
     4    1   27 1
     5    2    3 1
     6    2   28 1
     7    2   29 1
     8    3    4 1
     9    3    5 1
    10    3   24 1
    11    5    6 1
    12    5    7 1
    13    5   14 1
    14    7   12 ar
    15    7    8 ar
    16    8    9 ar
    17    8   30 1
    18    9   10 ar
    19    9   31 1
    20   10   11 ar
    21   10   13 1
    22   11   12 ar
    23   11   32 1
    24   12   33 1
    25   14   20 1
    26   14   15 1
    27   15   16 1
    28   15   34 1
    29   15   35 1
    30   16   17 1
    31   16   36 1
    32   16   37 1
    33   17   18 1
    34   17   38 1
    35   17   39 1
    36   18   19 1
    37   18   20 1
    38   18   21 1
    39   20   40 1
    40   20   41 1
    41   21   22 2
    42   21   23 am
    43   23   42 1
    44   23   43 1
    45   24   44 1
    46   24   45 1
    47   24   46 1
@<TRIPOS>MOLECULE
ZINC02932451
   27    28     0     0     0
SMALL
USER_CHARGES
3-(2-oxo-4-thioxo-9-thia-3,5-diazabicyclo[4.3.0]nona-7,10-dien-3-yl)propanehydrazide
@<TRIPOS>ATOM
      1 C1          2.2776    4.6262    0.0060 C.2       1 <0>        -0.1926
      2 C2          2.0912    5.9664    0.0153 C.2       1 <0>        -0.1461
      3 S1          0.3649    6.1325    0.0318 S.3       1 <0>         0.2913
      4 C3         -0.0629    4.4122    0.0259 C.2       1 <0>        -0.3317
      5 C4          1.1790    3.7714    0.0111 C.2       1 <0>         0.1715
      6 N1          1.1464    2.3673    0.0038 N.pl3     1 <0>        -0.5711
      7 H1          2.0041    1.8533   -0.0072 H         1 <0>         0.4544
      8 C5         -0.0211    1.7077    0.0114 C.2       1 <0>         0.5317
      9 S2          0.0021   -0.0041    0.0020 S.2       1 <0>        -0.5406
     10 N2         -1.2088    2.3367    0.0206 N.am      1 <0>        -0.5020
     11 C6         -1.2597    3.6879    0.0329 C.2       1 <0>         0.5893
     12 O1         -2.3319    4.2659    0.0458 O.2       1 <0>        -0.4825
     13 C7         -2.4494    1.5576    0.0224 C.3       1 <0>         0.1142
     14 C8         -2.8743    1.2785    1.4655 C.3       1 <0>        -0.1480
     15 C9         -4.1505    0.4770    1.4673 C.2       1 <0>         0.5280
     16 O2         -4.6691    0.1602    0.4178 O.2       1 <0>        -0.5212
     17 N3         -4.7155    0.1123    2.6353 N.am      1 <0>        -0.5782
     18 N4         -5.8723   -0.6142    2.6370 N.3       1 <0>        -0.6024
     19 H2          3.2782    4.2200   -0.0057 H         1 <0>         0.1550
     20 H3          2.8385    6.7461    0.0133 H         1 <0>         0.2108
     21 H4         -3.2329    2.1208   -0.4846 H         1 <0>         0.1155
     22 H5         -2.2863    0.6135   -0.4974 H         1 <0>         0.1380
     23 H6         -2.0908    0.7153    1.9725 H         1 <0>         0.1108
     24 H7         -3.0374    2.2226    1.9853 H         1 <0>         0.0977
     25 H8         -4.3007    0.3657    3.4748 H         1 <0>         0.4016
     26 H9         -6.1740   -0.8116    3.5794 H         1 <0>         0.3587
     27 H10        -6.5966   -0.1419    2.1169 H         1 <0>         0.3479
@<TRIPOS>BOND
     1    1    5 1
     2    1    2 2
     3    1   19 1
     4    2    3 1
     5    2   20 1
     6    3    4 1
     7    4   11 1
     8    4    5 2
     9    5    6 1
    10    6    7 1
    11    6    8 1
    12    8    9 2
    13    8   10 1
    14   10   11 am
    15   10   13 1
    16   11   12 2
    17   13   14 1
    18   13   21 1
    19   13   22 1
    20   14   15 1
    21   14   23 1
    22   14   24 1
    23   15   16 2
    24   15   17 am
    25   17   18 1
    26   17   25 1
    27   18   26 1
    28   18   27 1
@<TRIPOS>MOLECULE
ZINC35234222
   35    35     0     0     0
SMALL
USER_CHARGES

@<TRIPOS>ATOM
      1 C1         -0.0291    1.5092   -0.0011 C.3       1 <0>        -0.1598
      2 C2         -0.0027   -0.0206   -0.0072 C.3       1 <0>         0.1425
      3 H1          0.5103   -0.3716   -0.9027 H         1 <0>         0.0994
      4 C3         -1.4361   -0.5554    0.0021 C.3       1 <0>         0.0660
      5 O1         -2.1438   -0.0022    1.1135 O.3       1 <0>        -0.5701
      6 N1          0.7057   -0.5016    1.1815 N.am      1 <0>        -0.7211
      7 C4          2.0493   -0.6071    1.1687 C.2       1 <0>         0.5218
      8 O2          2.6719   -0.3039    0.1730 O.2       1 <0>        -0.5356
      9 C5          2.7780   -1.1018    2.3915 C.3       1 <0>        -0.1236
     10 H2          2.5744   -0.4363    3.2304 H         1 <0>         0.1028
     11 C6          4.2827   -1.1280    2.1137 C.3       1 <0>        -0.0997
     12 C7          5.0262   -1.5991    3.3656 C.3       1 <0>        -0.1363
     13 C8          4.5749   -3.0199    3.7184 C.3       1 <0>         0.1082
     14 N2          3.1111   -3.0334    3.8449 N.am      1 <0>        -0.6276
     15 C9          2.3006   -2.5167    2.7337 C.3       1 <0>         0.1400
     16 C10         2.5226   -3.5107    4.9595 C.2       1 <0>         0.7104
     17 O3          1.3168   -3.4296    5.0926 O.2       1 <0>        -0.5910
     18 N3          3.2707   -4.0780    5.9265 N.am      1 <0>        -0.8667
     19 H3          0.9921    1.8902   -0.0077 H         1 <0>         0.0588
     20 H4         -0.5561    1.8670   -0.8855 H         1 <0>         0.0639
     21 H5         -0.5420    1.8601    0.8944 H         1 <0>         0.0670
     22 H6         -1.9357   -0.2719   -0.9243 H         1 <0>         0.0628
     23 H7         -1.4180   -1.6420    0.0873 H         1 <0>         0.0538
     24 H8         -3.0617   -0.2984    1.1822 H         1 <0>         0.3842
     25 H9          0.2078   -0.7441    1.9778 H         1 <0>         0.4068
     26 H10         4.4881   -1.8122    1.2904 H         1 <0>         0.0743
     27 H11         4.6201   -0.1267    1.8462 H         1 <0>         0.0767
     28 H12         6.0993   -1.5952    3.1746 H         1 <0>         0.0836
     29 H13         4.8016   -0.9294    4.1958 H         1 <0>         0.0696
     30 H14         4.8797   -3.7067    2.9289 H         1 <0>         0.0744
     31 H15         5.0261   -3.3226    4.6633 H         1 <0>         0.0803
     32 H16         1.2517   -2.4870    3.0287 H         1 <0>         0.0993
     33 H17         2.4195   -3.1628    1.8639 H         1 <0>         0.0726
     34 H18         4.2380   -4.0783    5.8539 H         1 <0>         0.3966
     35 H19         2.8418   -4.4859    6.6949 H         1 <0>         0.4156
@<TRIPOS>BOND
     1    1    2 1
     2    1   19 1
     3    1   20 1
     4    1   21 1
     5    2    3 1
     6    2    4 1
     7    2    6 1
     8    4    5 1
     9    4   22 1
    10    4   23 1
    11    5   24 1
    12    6    7 am
    13    6   25 1
    14    7    8 2
    15    7    9 1
    16    9   10 1
    17    9   15 1
    18    9   11 1
    19   11   12 1
    20   11   26 1
    21   11   27 1
    22   12   13 1
    23   12   28 1
    24   12   29 1
    25   13   14 1
    26   13   30 1
    27   13   31 1
    28   14   15 1
    29   14   16 am
    30   15   32 1
    31   15   33 1
    32   16   17 2
    33   16   18 am
    34   18   34 1
    35   18   35 1
@<TRIPOS>MOLECULE
ZINC42430352
   38    38     0     0     0
SMALL
USER_CHARGES

@<TRIPOS>ATOM
      1 C1         -0.0178    1.5257    0.0056 C.3       1 <0>        -0.1521
      2 C2          0.0028   -0.0042   -0.0017 C.3       1 <0>        -0.1200
      3 C3          0.7199   -0.4986   -1.2596 C.3       1 <0>        -0.1131
      4 C4          0.7405   -2.0284   -1.2669 C.3       1 <0>         0.0892
      5 H1         -0.2774   -2.4059   -1.1703 H         1 <0>         0.0853
      6 C5          1.3365   -2.5166   -2.5621 C.2       1 <0>         0.4895
      7 O1          2.5383   -2.7032   -2.6481 O.co2     1 <0>        -0.6950
      8 O2          0.6169   -2.7249   -3.5240 O.co2     1 <0>        -0.6871
      9 N1          1.5491   -2.5113   -0.1447 N.am      1 <0>        -0.6970
     10 C6          1.3281   -3.7388    0.3660 C.2       1 <0>         0.7080
     11 O3          0.3992   -4.4088   -0.0420 O.2       1 <0>        -0.5832
     12 N2          2.1369   -4.2236    1.3291 N.am      1 <0>        -0.6326
     13 C7          3.1907   -3.3837    1.9145 C.3       1 <0>         0.1048
     14 C8          4.5276   -4.1241    1.8075 C.3       1 <0>        -0.1348
     15 C9          4.3941   -5.5056    2.4523 C.3       1 <0>        -0.1359
     16 C10         3.3315   -6.3173    1.7079 C.3       1 <0>         0.0026
     17 H2          3.6130   -6.4098    0.6590 H         1 <0>         0.1483
     18 C11         1.9774   -5.6000    1.8177 C.3       1 <0>         0.1181
     19 N3          3.2269   -7.6544    2.3072 N.4       1 <0>        -0.6304
     20 H3          1.0048    1.9028   -0.0015 H         1 <0>         0.0524
     21 H4         -0.5442    1.8862   -0.8782 H         1 <0>         0.0558
     22 H5         -0.5288    1.8778    0.9017 H         1 <0>         0.0500
     23 H6          0.5291   -0.3647    0.8820 H         1 <0>         0.0532
     24 H7         -1.0199   -0.3814    0.0054 H         1 <0>         0.0603
     25 H8          0.1936   -0.1380   -2.1433 H         1 <0>         0.0806
     26 H9          1.7426   -0.1214   -1.2667 H         1 <0>         0.0645
     27 H10         2.2434   -1.9475    0.2307 H         1 <0>         0.3891
     28 H11         3.2507   -2.4408    1.3709 H         1 <0>         0.0941
     29 H12         2.9633   -3.1897    2.9627 H         1 <0>         0.0746
     30 H13         4.7978   -4.2372    0.7576 H         1 <0>         0.0862
     31 H14         5.3009   -3.5550    2.3234 H         1 <0>         0.0969
     32 H15         5.3509   -6.0250    2.3994 H         1 <0>         0.0888
     33 H16         4.0997   -5.3924    3.4957 H         1 <0>         0.0876
     34 H17         1.6531   -5.5831    2.8582 H         1 <0>         0.0812
     35 H18         1.2366   -6.1199    1.2103 H         1 <0>         0.1150
     36 H19         2.9653   -7.5684    3.2779 H         1 <0>         0.4309
     37 H20         2.5263   -8.1892    1.8162 H         1 <0>         0.4385
     38 H21         4.1174   -8.1240    2.2393 H         1 <0>         0.4358
@<TRIPOS>BOND
     1    1    2 1
     2    1   20 1
     3    1   21 1
     4    1   22 1
     5    2    3 1
     6    2   23 1
     7    2   24 1
     8    3    4 1
     9    3   25 1
    10    3   26 1
    11    4    5 1
    12    4    6 1
    13    4    9 1
    14    6    7 2
    15    6    8 1
    16    9   10 am
    17    9   27 1
    18   10   11 2
    19   10   12 am
    20   12   18 1
    21   12   13 1
    22   13   14 1
    23   13   28 1
    24   13   29 1
    25   14   15 1
    26   14   30 1
    27   14   31 1
    28   15   16 1
    29   15   32 1
    30   15   33 1
    31   16   17 1
    32   16   18 1
    33   16   19 1
    34   18   34 1
    35   18   35 1
    36   19   36 1
    37   19   37 1
    38   19   38 1
@<TRIPOS>MOLECULE
ZINC50244608
   36    37     0     0     0
SMALL
USER_CHARGES

@<TRIPOS>ATOM
      1 C1         -0.0188    1.5345    0.0105 C.3       1 <0>        -0.1221
      2 C2          1.4534    1.9953   -0.0011 C.3       1 <0>        -0.1215
      3 C3          2.2325    0.7924    0.5864 C.3       1 <0>        -0.1107
      4 C4          1.4862   -0.4246   -0.0144 C.3       1 <0>         0.1165
      5 C5          0.0021   -0.0041    0.0020 C.3       1 <0>        -0.1100
      6 C6          1.6974   -1.6475    0.8406 C.2       1 <0>         0.5040
      7 O1          1.3396   -1.6456    2.0061 O.co2     1 <0>        -0.6907
      8 O2          2.2261   -2.6387    0.3667 O.co2     1 <0>        -0.6804
      9 N1          1.9334   -0.6736   -1.3871 N.am      1 <0>        -0.7016
     10 C7          1.4056   -1.6931   -2.0932 C.2       1 <0>         0.7307
     11 O3          0.5584   -2.4061   -1.5911 O.2       1 <0>        -0.5467
     12 N2          1.8170   -1.9222   -3.3561 N.am      1 <0>        -0.6442
     13 C8          2.8339   -1.1456   -4.0802 C.3       1 <0>         0.0984
     14 C9          2.9546   -1.7539   -5.4933 C.3       1 <0>        -0.1419
     15 C10         1.5963   -2.4813   -5.6758 C.3       1 <0>         0.0022
     16 H1          0.8208   -1.7858   -5.9970 H         1 <0>         0.1588
     17 C11         1.3265   -2.9970   -4.2378 C.3       1 <0>         0.1179
     18 N3          1.7205   -3.5997   -6.6200 N.4       1 <0>        -0.6260
     19 H2         -0.5162    1.8962    0.9104 H         1 <0>         0.0625
     20 H3         -0.5332    1.9058   -0.8758 H         1 <0>         0.0524
     21 H4          1.7808    2.2008   -1.0203 H         1 <0>         0.0549
     22 H5          1.5822    2.8767    0.6270 H         1 <0>         0.0636
     23 H6          3.2720    0.8083    0.2589 H         1 <0>         0.0610
     24 H7          2.1693    0.7856    1.6746 H         1 <0>         0.0915
     25 H8         -0.4852   -0.3890    0.8978 H         1 <0>         0.0793
     26 H9         -0.5022   -0.3794   -0.8884 H         1 <0>         0.0579
     27 H10         2.6093   -0.1049   -1.7877 H         1 <0>         0.3804
     28 H11         2.5235   -0.1031   -4.1507 H         1 <0>         0.0783
     29 H12         3.7911   -1.2155   -3.5635 H         1 <0>         0.0826
     30 H13         3.0761   -0.9705   -6.2414 H         1 <0>         0.1087
     31 H14         3.7810   -2.4633   -5.5385 H         1 <0>         0.0983
     32 H15         1.8770   -3.9196   -4.0537 H         1 <0>         0.0809
     33 H16         0.2587   -3.1547   -4.0859 H         1 <0>         0.1031
     34 H17         2.3974   -4.2614   -6.2705 H         1 <0>         0.4355
     35 H18         0.8260   -4.0553   -6.7213 H         1 <0>         0.4393
     36 H19         2.0236   -3.2506   -7.5169 H         1 <0>         0.4373
@<TRIPOS>BOND
     1    1    5 1
     2    1    2 1
     3    1   19 1
     4    1   20 1
     5    2    3 1
     6    2   21 1
     7    2   22 1
     8    3    4 1
     9    3   23 1
    10    3   24 1
    11    4    5 1
    12    4    6 1
    13    4    9 1
    14    5   25 1
    15    5   26 1
    16    6    7 2
    17    6    8 1
    18    9   10 am
    19    9   27 1
    20   10   11 2
    21   10   12 am
    22   12   17 1
    23   12   13 1
    24   13   14 1
    25   13   28 1
    26   13   29 1
    27   14   15 1
    28   14   30 1
    29   14   31 1
    30   15   16 1
    31   15   17 1
    32   15   18 1
    33   17   32 1
    34   17   33 1
    35   18   34 1
    36   18   35 1
    37   18   36 1
@<TRIPOS>MOLECULE
ZINC00809312
   29    31     0     0     0
SMALL
USER_CHARGES

@<TRIPOS>ATOM
      1 C1         -0.0184    1.5028    0.0103 C.3       1 <0>        -0.0808
      2 C2          0.0021   -0.0041    0.0020 C.2       1 <0>         0.1213
      3 C3          0.0079   -0.8110   -1.1278 C.2       1 <0>        -0.2495
      4 C4          0.0295   -2.1156   -0.7114 C.2       1 <0>         0.3278
      5 N1          0.0331   -2.1161    0.6350 N.pl3     1 <0>        -0.4770
      6 H1          0.0447   -2.8993    1.2072 H         1 <0>         0.4398
      7 N2          0.0231   -0.7781    1.0612 N.2       1 <0>        -0.2844
      8 N3          0.0486   -3.1785   -1.6136 N.pl3     1 <0>        -0.6435
      9 C5          0.3119   -2.8907   -2.9352 C.2       1 <0>         0.4974
     10 C6          0.3018   -1.6267   -3.4235 C.2       1 <0>        -0.2555
     11 C7         -0.0078   -0.4180   -2.5811 C.3       1 <0>         0.1586
     12 H2          0.7435    0.3516   -2.7584 H         1 <0>         0.0875
     13 C8         -1.3704    0.1136   -2.9442 C.2       1 <0>        -0.1619
     14 C9         -1.6662    1.4030   -3.4431 C.2       1 <0>        -0.2069
     15 C10        -2.9973    1.4524   -3.6306 C.2       1 <0>        -0.0437
     16 O1         -3.5204    0.2680   -3.2737 O.3       1 <0>        -0.1792
     17 C11        -2.5378   -0.5495   -2.8614 C.2       1 <0>        -0.0297
     18 C12         0.6004   -1.4308   -4.8103 C.1       1 <0>         0.2740
     19 N4          0.8372   -1.2755   -5.9104 N.1       1 <0>        -0.4561
     20 N5          0.5966   -3.9268   -3.7919 N.pl3     1 <0>        -0.8588
     21 H3          1.0042    1.8801    0.0026 H         1 <0>         0.0815
     22 H4         -0.5455    1.8639   -0.8728 H         1 <0>         0.0840
     23 H5         -0.5286    1.8543    0.9071 H         1 <0>         0.0754
     24 H6         -0.1172   -4.0884   -1.3212 H         1 <0>         0.4194
     25 H7         -0.9592    2.1963   -3.6361 H         1 <0>         0.1471
     26 H8         -3.5515    2.3007   -4.0043 H         1 <0>         0.1993
     27 H9         -2.6638   -1.5660   -2.5191 H         1 <0>         0.1893
     28 H10         0.6093   -4.8390   -3.4625 H         1 <0>         0.4036
     29 H11         0.7848   -3.7458   -4.7261 H         1 <0>         0.4208
@<TRIPOS>BOND
     1    1    2 1
     2    1   21 1
     3    1   22 1
     4    1   23 1
     5    2    7 2
     6    2    3 1
     7    3   11 1
     8    3    4 2
     9    4    5 1
    10    4    8 1
    11    5    6 1
    12    5    7 1
    13    8    9 1
    14    8   24 1
    15    9   10 2
    16    9   20 1
    17   10   11 1
    18   10   18 1
    19   11   12 1
    20   11   13 1
    21   13   17 2
    22   13   14 1
    23   14   15 2
    24   14   25 1
    25   15   16 1
    26   15   26 1
    27   16   17 1
    28   17   27 1
    29   18   19 3
    30   20   28 1
    31   20   29 1
@<TRIPOS>MOLECULE
ZINC00424641
   32    33     0     0     0
SMALL
USER_CHARGES
2,4-diamino-1-(tetrahydrofuran-2-ylmethyl)-6-thioxo-pyridine-3,5-dicarbonitrile
@<TRIPOS>ATOM
      1 C1          1.9521   -4.5774   -2.6457 C.3       1 <0>        -0.1561
      2 C2          1.0051   -4.1791   -1.4810 C.3       1 <0>        -0.1436
      3 C3          1.1360   -2.6409   -1.4638 C.3       1 <0>         0.0632
      4 H1          0.3009   -2.1914   -2.0011 H         1 <0>         0.1063
      5 O1          2.3683   -2.3041   -2.1116 O.3       1 <0>        -0.3812
      6 C4          3.0576   -3.5006   -2.5073 C.3       1 <0>         0.0461
      7 C5          1.1546   -2.1377   -0.0190 C.3       1 <0>         0.0625
      8 N1          1.1685   -0.6728   -0.0123 N.pl3     1 <0>        -0.4579
      9 C6          2.3606   -0.0191   -0.0201 C.2       1 <0>         0.5577
     10 C7          2.4083    1.3771   -0.0135 C.2       1 <0>        -0.2445
     11 C8          1.1996    2.1119    0.0019 C.2       1 <0>         0.4219
     12 C9         -0.0171    1.4085    0.0098 C.2       1 <0>        -0.2012
     13 C10         0.0021   -0.0041    0.0020 C.2       1 <0>         0.3737
     14 S1         -1.4734   -0.8724    0.0114 S.2       1 <0>        -0.5897
     15 C11        -1.2622    2.1157    0.0195 C.1       1 <0>         0.2817
     16 N2         -2.2500    2.6767    0.0273 N.1       1 <0>        -0.4100
     17 N3          1.2148    3.4871    0.0087 N.pl3     1 <0>        -0.8120
     18 C12         3.6682    2.0576   -0.0224 C.1       1 <0>         0.2610
     19 N4          4.6677    2.5975   -0.0294 N.1       1 <0>        -0.4048
     20 N5          3.5240   -0.7350   -0.0342 N.pl3     1 <0>        -0.8017
     21 H2          1.4458   -4.4993   -3.6079 H         1 <0>         0.0828
     22 H3          2.3578   -5.5783   -2.4982 H         1 <0>         0.0881
     23 H4          1.3469   -4.6081   -0.5391 H         1 <0>         0.0828
     24 H5         -0.0208   -4.4787   -1.6954 H         1 <0>         0.0954
     25 H6          3.5601   -3.3494   -3.4626 H         1 <0>         0.0900
     26 H7          3.7771   -3.7932   -1.7426 H         1 <0>         0.0615
     27 H8          2.0459   -2.5119    0.4846 H         1 <0>         0.0972
     28 H9          0.2661   -2.4950    0.5016 H         1 <0>         0.1502
     29 H10         0.3802    3.9813    0.0190 H         1 <0>         0.4194
     30 H11         2.0601    3.9628    0.0032 H         1 <0>         0.4145
     31 H12         3.4968   -1.7046   -0.0385 H         1 <0>         0.4191
     32 H13         4.3773   -0.2737   -0.0398 H         1 <0>         0.4275
@<TRIPOS>BOND
     1    1    6 1
     2    1    2 1
     3    1   21 1
     4    1   22 1
     5    2    3 1
     6    2   23 1
     7    2   24 1
     8    3    4 1
     9    3    5 1
    10    3    7 1
    11    5    6 1
    12    6   25 1
    13    6   26 1
    14    7    8 1
    15    7   27 1
    16    7   28 1
    17    8   13 1
    18    8    9 1
    19    9   10 2
    20    9   20 1
    21   10   11 1
    22   10   18 1
    23   11   12 2
    24   11   17 1
    25   12   13 1
    26   12   15 1
    27   13   14 2
    28   15   16 3
    29   17   29 1
    30   17   30 1
    31   18   19 3
    32   20   31 1
    33   20   32 1
@<TRIPOS>MOLECULE
ZINC35455191
   43    45     0     0     0
SMALL
USER_CHARGES

@<TRIPOS>ATOM
      1 C1         -0.0186    1.5220    0.0104 C.3       1 <0>        -0.1414
      2 C2          0.0021   -0.0041    0.0020 C.3       1 <0>        -0.1210
      3 H1          0.5184   -0.3826   -0.8798 H         1 <0>         0.1207
      4 C3         -1.3966   -0.6099    0.1171 C.3       1 <0>        -0.1253
      5 H2         -1.3229   -1.6527   -0.2118 H         1 <0>         0.1023
      6 C4         -1.5241   -0.5582    1.6589 C.3       1 <0>         0.0823
      7 H3         -1.4610    0.5081    1.9611 H         1 <0>         0.0783
      8 C5         -2.8605   -1.0508    2.1157 C.3       1 <0>        -0.1337
      9 C6         -3.3248   -2.3330    1.4393 C.3       1 <0>         0.1901
     10 C7         -3.8576   -2.0778    0.0455 C.2       1 <0>        -0.0884
     11 C8         -3.5678   -1.1243   -0.8058 C.2       1 <0>        -0.1193
     12 C9         -2.5786    0.0083   -0.5476 C.3       1 <0>         0.1859
     13 H4         -3.0402    0.7498    0.1056 H         1 <0>         0.0734
     14 O1         -2.2060    0.6162   -1.7846 O.3       1 <0>        -0.5331
     15 C10        -4.3336   -1.2727   -2.1006 C.3       1 <0>         0.1679
     16 C11        -4.9222   -2.6990   -2.0635 C.3       1 <0>        -0.1885
     17 C12        -4.9148   -2.9991   -0.5533 C.3       1 <0>         0.1436
     18 H5         -4.6452   -4.0406   -0.3736 H         1 <0>         0.0629
     19 O2         -6.1938   -2.7171    0.0190 O.3       1 <0>        -0.5425
     20 C13        -5.4547   -0.2343   -2.1800 C.3       1 <0>        -0.1741
     21 O3         -3.4578   -1.1407   -3.2236 O.3       1 <0>        -0.5424
     22 C14        -2.2243   -3.3913    1.4124 C.3       1 <0>        -0.1757
     23 O4         -4.4145   -2.8710    2.2223 O.3       1 <0>        -0.5474
     24 O5         -0.2955   -1.1484    2.0505 O.3       1 <0>        -0.3295
     25 C15         0.6613   -0.5427    1.2791 C.2       1 <0>         0.4766
     26 O6          1.8308   -0.4480    1.5580 O.2       1 <0>        -0.4322
     27 H6          1.0040    1.8992    0.0027 H         1 <0>         0.0686
     28 H7         -0.5458    1.8830   -0.8727 H         1 <0>         0.0920
     29 H8         -0.5288    1.8735    0.9072 H         1 <0>         0.0552
     30 H9         -2.8303   -1.2166    3.2053 H         1 <0>         0.0914
     31 H10        -3.6145   -0.2656    1.9468 H         1 <0>         0.1039
     32 H11        -2.9409    1.0325   -2.2554 H         1 <0>         0.3798
     33 H12        -5.9384   -2.7121   -2.4623 H         1 <0>         0.0863
     34 H13        -4.2880   -3.3992   -2.6089 H         1 <0>         0.0901
     35 H14        -6.9085   -3.2717   -0.3226 H         1 <0>         0.3751
     36 H15        -5.0265    0.7670   -2.1339 H         1 <0>         0.0620
     37 H16        -5.9961   -0.3551   -3.1183 H         1 <0>         0.0656
     38 H17        -6.1403   -0.3751   -1.3443 H         1 <0>         0.0779
     39 H18        -3.8996   -1.2280   -4.0793 H         1 <0>         0.3768
     40 H19        -1.9264   -3.6317    2.4330 H         1 <0>         0.0718
     41 H20        -2.5967   -4.2903    0.9213 H         1 <0>         0.0678
     42 H21        -1.3643   -3.0073    0.8637 H         1 <0>         0.0705
     43 H22        -4.1764   -3.0807    3.1357 H         1 <0>         0.3759
@<TRIPOS>BOND
     1    1    2 1
     2    1   27 1
     3    1   28 1
     4    1   29 1
     5    2    3 1
     6    2   25 1
     7    2    4 1
     8    4    5 1
     9    4   12 1
    10    4    6 1
    11    6    7 1
    12    6    8 1
    13    6   24 1
    14    8    9 1
    15    8   30 1
    16    8   31 1
    17    9   10 1
    18    9   22 1
    19    9   23 1
    20   10   17 1
    21   10   11 2
    22   11   12 1
    23   11   15 1
    24   12   13 1
    25   12   14 1
    26   14   32 1
    27   15   16 1
    28   15   20 1
    29   15   21 1
    30   16   17 1
    31   16   33 1
    32   16   34 1
    33   17   18 1
    34   17   19 1
    35   19   35 1
    36   20   36 1
    37   20   37 1
    38   20   38 1
    39   21   39 1
    40   22   40 1
    41   22   41 1
    42   22   42 1
    43   23   43 1
    44   24   25 1
    45   25   26 2
@<TRIPOS>MOLECULE
ZINC40376586
   34    34     0     0     0
SMALL
USER_CHARGES

@<TRIPOS>ATOM
      1 C1         -0.0187    1.5258    0.0104 C.3       1 <0>        -0.1695
      2 C2          0.0021   -0.0041    0.0020 C.3       1 <0>         0.2178
      3 H1          0.5123   -0.3556   -0.8948 H         1 <0>         0.1137
      4 C3          0.7309   -0.5033    1.2229 C.2       1 <0>         0.3652
      5 N1          2.0184   -0.6091    1.2083 N.2       1 <0>        -0.4155
      6 O1          2.7032   -1.0782    2.3555 O.3       1 <0>        -0.4229
      7 N2          0.0245   -0.8467    2.3542 N.pl3     1 <0>        -0.8648
      8 N3         -1.3723   -0.5112    0.0124 N.pl3     1 <0>        -1.1248
      9 S1         -2.1195   -0.9073   -1.4113 S.o2      1 <0>         2.7861
     10 O2         -3.4136   -1.3859   -1.0714 O.2       1 <0>        -0.9691
     11 O3         -1.9200    0.1888   -2.2934 O.2       1 <0>        -0.9647
     12 N4         -1.2948   -2.1903   -2.0566 N.pl3     1 <0>        -1.0030
     13 C4         -0.1601   -1.9709   -2.9638 C.3       1 <0>         0.1154
     14 C5          1.0532   -2.7392   -2.4306 C.3       1 <0>        -0.1382
     15 C6          0.6766   -4.2102   -2.2394 C.3       1 <0>        -0.1171
     16 C7         -0.4536   -4.3200   -1.2134 C.3       1 <0>        -0.1354
     17 C8         -1.6802   -3.5695   -1.7280 C.3       1 <0>         0.1210
     18 H2          1.0039    1.9031    0.0027 H         1 <0>         0.0802
     19 H3         -0.5459    1.8868   -0.8726 H         1 <0>         0.0866
     20 H4         -0.5289    1.8773    0.9072 H         1 <0>         0.0673
     21 H5          3.6633   -1.1231    2.2494 H         1 <0>         0.4020
     22 H6         -0.9421   -0.7672    2.3651 H         1 <0>         0.3931
     23 H7          0.4937   -1.1680    3.1400 H         1 <0>         0.4106
     24 H8         -1.8447   -0.6148    0.8533 H         1 <0>         0.4145
     25 H9         -0.4134   -2.3335   -3.9600 H         1 <0>         0.0781
     26 H10         0.0719   -0.9068   -3.0081 H         1 <0>         0.0901
     27 H11         1.8739   -2.6635   -3.1439 H         1 <0>         0.0782
     28 H12         1.3610   -2.3153   -1.4748 H         1 <0>         0.0689
     29 H13         0.3454   -4.6269   -3.1906 H         1 <0>         0.0658
     30 H14         1.5453   -4.7641   -1.8834 H         1 <0>         0.0653
     31 H15        -0.7054   -5.3694   -1.0604 H         1 <0>         0.0760
     32 H16        -0.1317   -3.8812   -0.2691 H         1 <0>         0.0650
     33 H17        -2.4508   -3.5598   -0.9572 H         1 <0>         0.0886
     34 H18        -2.0601   -4.0654   -2.6212 H         1 <0>         0.0760
@<TRIPOS>BOND
     1    1    2 1
     2    1   18 1
     3    1   19 1
     4    1   20 1
     5    2    3 1
     6    2    4 1
     7    2    8 1
     8    4    5 2
     9    4    7 1
    10    5    6 1
    11    6   21 1
    12    7   22 1
    13    7   23 1
    14    8    9 1
    15    8   24 1
    16    9   10 2
    17    9   11 2
    18    9   12 1
    19   12   17 1
    20   12   13 1
    21   13   14 1
    22   13   25 1
    23   13   26 1
    24   14   15 1
    25   14   27 1
    26   14   28 1
    27   15   16 1
    28   15   29 1
    29   15   30 1
    30   16   17 1
    31   16   31 1
    32   16   32 1
    33   17   33 1
    34   17   34 1
@<TRIPOS>MOLECULE
ZINC44774299
   38    39     0     0     0
SMALL
USER_CHARGES

@<TRIPOS>ATOM
      1 C1          1.6639    0.2286    4.4538 C.3       1 <0>        -0.1292
      2 C2          2.2313    1.3123    3.4993 C.3       1 <0>        -0.1247
      3 C3          2.3405    0.5647    2.1536 C.3       1 <0>         0.1158
      4 H1          3.3595    0.2047    2.0113 H         1 <0>         0.1060
      5 N1          1.4114   -0.5733    2.2098 N.am      1 <0>        -0.5960
      6 C4          0.7160   -0.5521    3.5096 C.3       1 <0>         0.0760
      7 C5          1.2254   -1.4844    1.2342 C.2       1 <0>         0.5454
      8 O1          1.7885   -1.3546    0.1679 O.2       1 <0>        -0.5037
      9 C6          0.3178   -2.6644    1.4684 C.3       1 <0>        -0.0635
     10 C7          0.1485   -3.4476    0.1629 C.3       1 <0>        -0.1258
     11 C8          1.5084   -4.0011   -0.2709 C.3       1 <0>         0.0508
     12 O2          2.0410   -4.8225    0.7701 O.3       1 <0>        -0.3764
     13 C9          2.2649   -4.1322    2.0011 C.3       1 <0>         0.0586
     14 C10         0.9354   -3.5840    2.5263 C.3       1 <0>        -0.1364
     15 C11        -1.0270   -2.1793    1.9452 C.2       1 <0>         0.2942
     16 S1         -1.6584   -2.7687    3.2908 S.2       1 <0>        -0.4316
     17 N2         -1.6974   -1.2486    1.2376 N.pl3     1 <0>        -0.7674
     18 C12         1.9601    1.4858    1.0232 C.2       1 <0>         0.5123
     19 O3          1.0112    1.2189    0.3167 O.2       1 <0>        -0.5261
     20 N3          2.6743    2.6063    0.7974 N.am      1 <0>        -0.8528
     21 H2          2.4587   -0.4157    4.8297 H         1 <0>         0.0858
     22 H3          1.1100    0.6829    5.2753 H         1 <0>         0.0940
     23 H4          1.5428    2.1535    3.4183 H         1 <0>         0.0830
     24 H5          3.2127    1.6468    3.8354 H         1 <0>         0.0970
     25 H6          0.5668   -1.5675    3.8766 H         1 <0>         0.1042
     26 H7         -0.2399   -0.0359    3.4201 H         1 <0>         0.0714
     27 H8         -0.5469   -4.2721    0.3203 H         1 <0>         0.0886
     28 H9         -0.2391   -2.7857   -0.6114 H         1 <0>         0.0811
     29 H10         1.3868   -4.5954   -1.1766 H         1 <0>         0.0993
     30 H11         2.1914   -3.1747   -0.4672 H         1 <0>         0.0831
     31 H12         2.6883   -4.8209    2.7323 H         1 <0>         0.1057
     32 H13         2.9578   -3.3075    1.8346 H         1 <0>         0.0459
     33 H14         1.1105   -3.0195    3.4421 H         1 <0>         0.0930
     34 H15         0.2559   -4.4112    2.7314 H         1 <0>         0.1111
     35 H16        -1.2863   -0.8425    0.4584 H         1 <0>         0.4036
     36 H17        -2.5910   -0.9848    1.5073 H         1 <0>         0.4213
     37 H18         3.4332    2.8198    1.3626 H         1 <0>         0.4019
     38 H19         2.4294    3.1992    0.0698 H         1 <0>         0.4045
@<TRIPOS>BOND
     1    1    6 1
     2    1    2 1
     3    1   21 1
     4    1   22 1
     5    2    3 1
     6    2   23 1
     7    2   24 1
     8    3    4 1
     9    3    5 1
    10    3   18 1
    11    5    6 1
    12    5    7 am
    13    6   25 1
    14    6   26 1
    15    7    8 2
    16    7    9 1
    17    9   14 1
    18    9   10 1
    19    9   15 1
    20   10   11 1
    21   10   27 1
    22   10   28 1
    23   11   12 1
    24   11   29 1
    25   11   30 1
    26   12   13 1
    27   13   14 1
    28   13   31 1
    29   13   32 1
    30   14   33 1
    31   14   34 1
    32   15   16 2
    33   15   17 1
    34   17   35 1
    35   17   36 1
    36   18   19 2
    37   18   20 am
    38   20   37 1
    39   20   38 1
@<TRIPOS>MOLECULE
ZINC50397193
   33    34     0     0     0
SMALL
USER_CHARGES

@<TRIPOS>ATOM
      1 C1         -0.2124    1.1750    0.6069 C.ar      1 <0>        -0.0176
      2 C2         -0.0155    0.1938   -0.3478 C.ar      1 <0>        -0.1940
      3 C3          1.2330   -0.3782   -0.5086 C.ar      1 <0>         0.0197
      4 C4          2.2883    0.0293    0.2840 C.ar      1 <0>        -0.7560
      5 C5          2.0942    1.0147    1.2434 C.ar      1 <0>         0.3121
      6 C6          0.8382    1.5869    1.4027 C.ar      1 <0>        -0.2140
      7 N1          3.1591    1.4290    2.0466 N.pl3     1 <0>        -0.8685
      8 S1          3.8788   -0.7006    0.0787 S.o2      1 <0>         2.6911
      9 O1          3.7426   -1.6946   -0.9277 O.2       1 <0>        -0.9298
     10 O2          4.8063    0.3704   -0.0290 O.2       1 <0>        -0.9611
     11 N2          4.2371   -1.4975    1.4854 N.pl3     1 <0>        -1.1016
     12 C7          3.4416   -2.6583    1.8928 C.3       1 <0>         0.1500
     13 H1          2.4645   -2.6144    1.4119 H         1 <0>         0.1178
     14 C8          3.2614   -2.6431    3.4128 C.3       1 <0>        -0.1294
     15 C9          2.6732   -3.9918    3.8446 C.3       1 <0>        -0.1372
     16 C10         3.7195   -5.0812    3.6064 C.3       1 <0>         0.1057
     17 N3          4.2414   -4.9990    2.2480 N.am      1 <0>        -0.7199
     18 C11         4.1466   -3.9172    1.4761 C.2       1 <0>         0.4954
     19 O3          4.6561   -3.9525    0.3761 O.2       1 <0>        -0.5166
     20 H2         -1.1879    1.6226    0.7271 H         1 <0>         0.1310
     21 H3         -0.8389   -0.1266   -0.9688 H         1 <0>         0.1308
     22 H4          1.3831   -1.1446   -1.2545 H         1 <0>         0.1430
     23 H5          0.6839    2.3533    2.1477 H         1 <0>         0.1304
     24 H6          4.0484    1.0727    1.8947 H         1 <0>         0.3997
     25 H7          3.0093    2.0732    2.7562 H         1 <0>         0.4093
     26 H8          4.9737   -1.1957    2.0397 H         1 <0>         0.4185
     27 H9          4.2272   -2.4926    3.8953 H         1 <0>         0.0811
     28 H10         2.5811   -1.8391    3.6936 H         1 <0>         0.0866
     29 H11         2.4164   -3.9565    4.9033 H         1 <0>         0.0933
     30 H12         1.7810   -4.2067    3.2564 H         1 <0>         0.0780
     31 H13         4.5382   -4.9555    4.3151 H         1 <0>         0.0685
     32 H14         3.2626   -6.0590    3.7583 H         1 <0>         0.0810
     33 H15         4.6865   -5.7802    1.8840 H         1 <0>         0.4025
@<TRIPOS>BOND
     1    1    6 ar
     2    1    2 ar
     3    1   20 1
     4    2    3 ar
     5    2   21 1
     6    3    4 ar
     7    3   22 1
     8    4    5 ar
     9    4    8 1
    10    5    6 ar
    11    5    7 1
    12    6   23 1
    13    7   24 1
    14    7   25 1
    15    8    9 2
    16    8   10 2
    17    8   11 1
    18   11   12 1
    19   11   26 1
    20   12   13 1
    21   12   18 1
    22   12   14 1
    23   14   15 1
    24   14   27 1
    25   14   28 1
    26   15   16 1
    27   15   29 1
    28   15   30 1
    29   16   17 1
    30   16   31 1
    31   16   32 1
    32   17   18 am
    33   17   33 1
    34   18   19 2
@<TRIPOS>MOLECULE
ZINC06313176
   31    31     0     0     0
SMALL
USER_CHARGES
N-[4-(methylthiocarbamoylaminoiminomethyl)phenyl]acetamide
@<TRIPOS>ATOM
      1 C1          1.3286   -0.9725   -0.7455 C.3       1 <0>        -0.1729
      2 C2          0.0222   -0.2346   -0.6045 C.2       1 <0>         0.5117
      3 O1         -0.9993   -0.7210   -1.0415 O.2       1 <0>        -0.5215
      4 N1         -0.0111    0.9658    0.0074 N.am      1 <0>        -0.6771
      5 C3         -1.2047    1.6913    0.0586 C.ar      1 <0>         0.1682
      6 C4         -1.1761    3.0795   -0.0131 C.ar      1 <0>        -0.1519
      7 C5         -2.3508    3.7977    0.0314 C.ar      1 <0>        -0.0544
      8 C6         -3.5716    3.1297    0.1602 C.ar      1 <0>        -0.0854
      9 C7         -3.5959    1.7345    0.2377 C.ar      1 <0>        -0.0606
     10 C8         -2.4172    1.0231    0.1869 C.ar      1 <0>        -0.1270
     11 C9         -4.8306    3.8948    0.2138 C.2       1 <0>         0.1585
     12 N2         -4.8061    5.1905    0.1417 N.2       1 <0>        -0.2921
     13 N3         -6.0026    5.9176    0.1926 N.pl3     1 <0>        -0.5398
     14 C10        -5.9773    7.2630    0.1177 C.2       1 <0>         0.5878
     15 S1         -7.4393    8.1515    0.1799 S.2       1 <0>        -0.6175
     16 N4         -4.8009    7.9090   -0.0062 N.pl3     1 <0>        -0.6670
     17 C11        -4.7733    9.3714   -0.0876 C.3       1 <0>         0.0845
     18 H1          1.4787   -1.6146    0.1224 H         1 <0>         0.1001
     19 H2          1.3059   -1.5820   -1.6489 H         1 <0>         0.1001
     20 H3          2.1460   -0.2545   -0.8120 H         1 <0>         0.0845
     21 H4          0.7924    1.3246    0.4156 H         1 <0>         0.4149
     22 H5         -0.2319    3.5952   -0.1079 H         1 <0>         0.1323
     23 H6         -2.3281    4.8758   -0.0285 H         1 <0>         0.1352
     24 H7         -4.5373    1.2148    0.3377 H         1 <0>         0.1359
     25 H8         -2.4352   -0.0552    0.2463 H         1 <0>         0.1461
     26 H9         -5.7732    3.3771    0.3131 H         1 <0>         0.1298
     27 H10        -6.8493    5.4526    0.2817 H         1 <0>         0.4176
     28 H11        -3.9725    7.4056   -0.0414 H         1 <0>         0.4103
     29 H12        -5.2119    9.7940    0.8165 H         1 <0>         0.0827
     30 H13        -3.7419    9.7106   -0.1838 H         1 <0>         0.0843
     31 H14        -5.3457    9.6979   -0.9559 H         1 <0>         0.0826
@<TRIPOS>BOND
     1    1    2 1
     2    1   18 1
     3    1   19 1
     4    1   20 1
     5    2    3 2
     6    2    4 am
     7    4    5 1
     8    4   21 1
     9    5   10 ar
    10    5    6 ar
    11    6    7 ar
    12    6   22 1
    13    7    8 ar
    14    7   23 1
    15    8    9 ar
    16    8   11 1
    17    9   10 ar
    18    9   24 1
    19   10   25 1
    20   11   12 2
    21   11   26 1
    22   12   13 1
    23   13   14 1
    24   13   27 1
    25   14   15 2
    26   14   16 1
    27   16   17 1
    28   16   28 1
    29   17   29 1
    30   17   30 1
    31   17   31 1
@<TRIPOS>MOLECULE
ZINC20194174
   37    38     0     0     0
SMALL
USER_CHARGES
4-[[(3-hydroxyphenyl)amino]methyl]-2,6-dimethoxy-phenol
@<TRIPOS>ATOM
      1 C1          0.5583    9.3853    3.6217 C.3       1 <0>         0.0224
      2 O1          0.3955   10.1572    2.4302 O.3       1 <0>        -0.3017
      3 C2          0.5151    9.4983    1.2465 C.ar      1 <0>         0.1189
      4 C3          0.7835    8.1379    1.2332 C.ar      1 <0>        -0.1826
      5 C4          0.9052    7.4673    0.0307 C.ar      1 <0>        -0.0732
      6 C5          0.7662    8.1503   -1.1630 C.ar      1 <0>        -0.1817
      7 C6          0.4926    9.5097   -1.1584 C.ar      1 <0>         0.0675
      8 C7          0.3690   10.1876    0.0486 C.ar      1 <0>         0.1124
      9 O2          0.1051   11.5226    0.0574 O.3       1 <0>        -0.4942
     10 O3          0.3501   10.1796   -2.3333 O.3       1 <0>        -0.3220
     11 C8          0.4901    9.4190   -3.5349 C.3       1 <0>         0.0298
     12 C9          1.1964    5.9887    0.0209 C.3       1 <0>         0.1736
     13 N1         -0.0643    5.2426    0.0294 N.pl3     1 <0>        -0.7512
     14 C10        -0.0494    3.8461    0.0227 C.ar      1 <0>         0.2584
     15 C11         1.1609    3.1632    0.0080 C.ar      1 <0>        -0.2442
     16 C12         1.1755    1.7822    0.0004 C.ar      1 <0>        -0.0309
     17 C13        -0.0126    1.0758    0.0080 C.ar      1 <0>        -0.2233
     18 C14        -1.2242    1.7523    0.0174 C.ar      1 <0>         0.2007
     19 C15        -1.2432    3.1383    0.0303 C.ar      1 <0>        -0.2949
     20 O4         -2.3914    1.0563    0.0187 O.3       1 <0>        -0.5103
     21 H1          0.4375   10.0366    4.4999 H         1 <0>         0.1046
     22 H2          1.5625    8.9364    3.6334 H         1 <0>         0.0572
     23 H3         -0.1998    8.5887    3.6489 H         1 <0>         0.0567
     24 H4          0.8972    7.6016    2.1637 H         1 <0>         0.1377
     25 H5          0.8668    7.6236   -2.1006 H         1 <0>         0.1335
     26 H6         -0.0103   12.0667   -0.8916 H         1 <0>         0.4377
     27 H7          0.3523   10.0785   -4.4044 H         1 <0>         0.1059
     28 H8         -0.2682    8.6224   -3.5550 H         1 <0>         0.0581
     29 H9          1.4940    8.9707   -3.5702 H         1 <0>         0.0586
     30 H10         1.7674    5.7335   -0.8840 H         1 <0>         0.0682
     31 H11         1.7846    5.7249    0.9122 H         1 <0>         0.0687
     32 H12        -1.0227    5.7823    0.0411 H         1 <0>         0.4194
     33 H13         2.0907    3.7128    0.0020 H         1 <0>         0.1190
     34 H14         2.1169    1.2531   -0.0118 H         1 <0>         0.1259
     35 H15         0.0021   -0.0041    0.0020 H         1 <0>         0.1226
     36 H16        -2.1852    3.6664    0.0418 H         1 <0>         0.1215
     37 H17        -3.3517    1.5928    0.0262 H         1 <0>         0.4312
@<TRIPOS>BOND
     1    1    2 1
     2    1   21 1
     3    1   22 1
     4    1   23 1
     5    2    3 1
     6    3    8 ar
     7    3    4 ar
     8    4    5 ar
     9    4   24 1
    10    5    6 ar
    11    5   12 1
    12    6    7 ar
    13    6   25 1
    14    7    8 ar
    15    7   10 1
    16    8    9 1
    17    9   26 1
    18   10   11 1
    19   11   27 1
    20   11   28 1
    21   11   29 1
    22   12   13 1
    23   12   30 1
    24   12   31 1
    25   13   14 1
    26   13   32 1
    27   14   19 ar
    28   14   15 ar
    29   15   16 ar
    30   15   33 1
    31   16   17 ar
    32   16   34 1
    33   17   18 ar
    34   17   35 1
    35   18   19 ar
    36   18   20 1
    37   19   36 1
    38   20   37 1
@<TRIPOS>MOLECULE
ZINC37985385
   35    36     0     0     0
SMALL
USER_CHARGES

@<TRIPOS>ATOM
      1 C1          0.1933    1.4987   -0.1385 C.3       1 <0>        -0.1770
      2 C2         -0.0000   -0.0127   -0.0002 C.3       1 <0>         0.0736
      3 H1          0.3959   -0.5121   -0.8845 H         1 <0>         0.0991
      4 C3         -1.4689   -0.3209    0.1354 C.2       1 <0>         0.5215
      5 O1         -1.8955   -0.8005    1.1644 O.2       1 <0>        -0.5116
      6 N1         -2.3086   -0.0637   -0.8870 N.am      1 <0>        -0.7256
      7 C4         -3.7366   -0.3633   -0.7552 C.3       1 <0>         0.2056
      8 C5         -4.4488    0.0149   -2.0283 C.2       1 <0>        -0.0447
      9 C6         -4.6514   -0.7915   -3.0857 C.2       1 <0>        -0.1788
     10 C7         -5.3546   -0.0336   -4.0500 C.2       1 <0>        -0.2182
     11 C8         -5.5396    1.1906   -3.5243 C.2       1 <0>        -0.0246
     12 O2         -4.9940    1.2124   -2.2973 O.3       1 <0>        -0.1712
     13 O3          0.6932   -0.4774    1.1597 O.3       1 <0>        -0.2900
     14 C9          2.0149   -0.7642    1.0156 C.ar      1 <0>         0.0479
     15 C10         2.6567   -0.4966   -0.1822 C.ar      1 <0>        -0.1639
     16 C11         4.0005   -0.7890   -0.3275 C.ar      1 <0>        -0.1427
     17 C12         4.7073   -1.3484    0.7208 C.ar      1 <0>        -0.1018
     18 C13         4.0744   -1.6181    1.9196 C.ar      1 <0>        -0.1701
     19 C14         2.7278   -1.3225    2.0744 C.ar      1 <0>         0.2016
     20 N2          2.0859   -1.5893    3.2892 N.pl3     1 <0>        -0.8730
     21 H2          1.2557    1.7216   -0.2366 H         1 <0>         0.0795
     22 H3         -0.3355    1.8532   -1.0233 H         1 <0>         0.0771
     23 H4         -0.2026    1.9981    0.7458 H         1 <0>         0.0754
     24 H5         -1.9675    0.3199   -1.7100 H         1 <0>         0.4051
     25 H6         -3.8685   -1.4290   -0.5679 H         1 <0>         0.1026
     26 H7         -4.1520    0.2059    0.0764 H         1 <0>         0.0887
     27 H8         -4.3368   -1.8204   -3.1801 H         1 <0>         0.1519
     28 H9         -5.6803   -0.3724   -5.0224 H         1 <0>         0.1524
     29 H10        -6.0448    2.0150   -4.0056 H         1 <0>         0.2068
     30 H11         2.1075   -0.0596   -1.0031 H         1 <0>         0.1273
     31 H12         4.4990   -0.5803   -1.2626 H         1 <0>         0.1221
     32 H13         5.7566   -1.5754    0.6025 H         1 <0>         0.1236
     33 H14         4.6288   -2.0554    2.7367 H         1 <0>         0.1276
     34 H15         1.1435   -1.3855    3.3948 H         1 <0>         0.4059
     35 H16         2.5835   -1.9780    4.0255 H         1 <0>         0.3981
@<TRIPOS>BOND
     1    1    2 1
     2    1   21 1
     3    1   22 1
     4    1   23 1
     5    2    3 1
     6    2    4 1
     7    2   13 1
     8    4    5 2
     9    4    6 am
    10    6    7 1
    11    6   24 1
    12    7    8 1
    13    7   25 1
    14    7   26 1
    15    8   12 1
    16    8    9 2
    17    9   10 1
    18    9   27 1
    19   10   11 2
    20   10   28 1
    21   11   12 1
    22   11   29 1
    23   13   14 1
    24   14   19 ar
    25   14   15 ar
    26   15   16 ar
    27   15   30 1
    28   16   17 ar
    29   16   31 1
    30   17   18 ar
    31   17   32 1
    32   18   19 ar
    33   18   33 1
    34   19   20 1
    35   20   34 1
    36   20   35 1
@<TRIPOS>MOLECULE
ZINC45060582
   43    43     0     0     0
SMALL
USER_CHARGES

@<TRIPOS>ATOM
      1 C1          2.6999   -2.6641   -1.9267 C.3       1 <0>        -0.1693
      2 C2          2.0974   -1.4225   -1.2662 C.3       1 <0>         0.1162
      3 N1          0.6355   -1.5069   -1.3100 N.am      1 <0>        -0.5910
      4 C3         -0.0881   -2.2323   -0.2628 C.3       1 <0>         0.1650
      5 C4         -0.2700   -1.3361    0.9350 C.2       1 <0>         0.3407
      6 N2          0.1904   -0.1292    0.9146 N.2       1 <0>        -0.4063
      7 O1          0.0194    0.7128    2.0401 O.3       1 <0>        -0.4266
      8 N3         -0.9270   -1.8037    2.0514 N.pl3     1 <0>        -0.8681
      9 C5         -0.0438   -0.9172   -2.3136 C.2       1 <0>         0.5704
     10 O2          0.5590   -0.3814   -3.2230 O.2       1 <0>        -0.5236
     11 C6         -1.5223   -0.9221   -2.3086 C.ar      1 <0>        -0.1387
     12 C7         -2.2204   -0.5594   -1.1557 C.ar      1 <0>        -0.0935
     13 C8         -3.6000   -0.5656   -1.1578 C.ar      1 <0>        -0.1205
     14 C9         -4.2914   -0.9308   -2.2992 C.ar      1 <0>        -0.0459
     15 C10        -3.6055   -1.2919   -3.4452 C.ar      1 <0>        -0.1264
     16 C11        -2.2259   -1.2839   -3.4584 C.ar      1 <0>        -0.0652
     17 C12        -5.7984   -0.9357   -2.2940 C.3       1 <0>        -0.0338
     18 C13        -6.3120    0.4714   -1.9826 C.3       1 <0>        -0.1404
     19 C14        -6.3117   -1.3737   -3.6672 C.3       1 <0>        -0.1468
     20 C15        -6.3016   -1.9100   -1.2270 C.3       1 <0>        -0.1389
     21 H1          2.3713   -3.5556   -1.3924 H         1 <0>         0.0548
     22 H2          2.3701   -2.7201   -2.9641 H         1 <0>         0.0607
     23 H3          3.7876   -2.6014   -1.8941 H         1 <0>         0.0689
     24 H4          2.4272   -1.3666   -0.2288 H         1 <0>         0.0773
     25 H5          2.4260   -0.5311   -1.8005 H         1 <0>         0.0892
     26 H6         -1.0642   -2.5371   -0.6401 H         1 <0>         0.1147
     27 H7          0.4813   -3.1153    0.0272 H         1 <0>         0.1101
     28 H8          0.3970    1.5964    1.9313 H         1 <0>         0.4016
     29 H9         -1.2727   -2.7099    2.0667 H         1 <0>         0.3982
     30 H10        -1.0441   -1.2269    2.8224 H         1 <0>         0.4098
     31 H11        -1.6818   -0.2748   -0.2638 H         1 <0>         0.1361
     32 H12        -4.1414   -0.2852   -0.2664 H         1 <0>         0.1244
     33 H13        -4.1511   -1.5762   -4.3328 H         1 <0>         0.1343
     34 H14        -1.6917   -1.5612   -4.3551 H         1 <0>         0.1301
     35 H15        -5.9535    1.1656   -2.7427 H         1 <0>         0.0579
     36 H16        -7.4020    0.4679   -1.9788 H         1 <0>         0.0612
     37 H17        -5.9463    0.7834   -1.0043 H         1 <0>         0.0572
     38 H18        -5.9458   -2.3762   -3.8891 H         1 <0>         0.0602
     39 H19        -7.4017   -1.3772   -3.6635 H         1 <0>         0.0606
     40 H20        -5.9533   -0.6795   -4.4274 H         1 <0>         0.0603
     41 H21        -5.9359   -1.5980   -0.2487 H         1 <0>         0.0570
     42 H22        -7.3916   -1.9136   -1.2233 H         1 <0>         0.0609
     43 H23        -5.9357   -2.9125   -1.4489 H         1 <0>         0.0574
@<TRIPOS>BOND
     1    1    2 1
     2    1   21 1
     3    1   22 1
     4    1   23 1
     5    2    3 1
     6    2   24 1
     7    2   25 1
     8    3    4 1
     9    3    9 am
    10    4    5 1
    11    4   26 1
    12    4   27 1
    13    5    6 2
    14    5    8 1
    15    6    7 1
    16    7   28 1
    17    8   29 1
    18    8   30 1
    19    9   10 2
    20    9   11 1
    21   11   16 ar
    22   11   12 ar
    23   12   13 ar
    24   12   31 1
    25   13   14 ar
    26   13   32 1
    27   14   15 ar
    28   14   17 1
    29   15   16 ar
    30   15   33 1
    31   16   34 1
    32   17   18 1
    33   17   19 1
    34   17   20 1
    35   18   35 1
    36   18   36 1
    37   18   37 1
    38   19   38 1
    39   19   39 1
    40   19   40 1
    41   20   41 1
    42   20   42 1
    43   20   43 1
@<TRIPOS>MOLECULE
ZINC51997073
   46    47     0     0     0
SMALL
USER_CHARGES

@<TRIPOS>ATOM
      1 C1         -0.0187    1.5258    0.0104 C.3       1 <0>        -0.1210
      2 C2          1.4167    2.0553   -0.0004 C.3       1 <0>        -0.1203
      3 C3          2.1328    1.5619   -1.2592 C.3       1 <0>        -0.1503
      4 C4          2.1536    0.0321   -1.2676 C.3       1 <0>         0.0987
      5 H1          2.6808   -0.3290   -0.3846 H         1 <0>         0.0602
      6 C5          0.7182   -0.4975   -1.2568 C.3       1 <0>         0.1542
      7 H2          0.1910   -0.1364   -2.1398 H         1 <0>         0.0953
      8 C6          0.0021   -0.0041    0.0020 C.3       1 <0>        -0.1281
      9 N1          0.7381   -1.9623   -1.2648 N.am      1 <0>        -0.7197
     10 C7         -0.3152   -2.6479   -1.7518 C.2       1 <0>         0.5197
     11 O1         -1.2794   -2.0521   -2.1833 O.2       1 <0>        -0.5331
     12 C8         -0.2947   -4.1547   -1.7601 C.3       1 <0>        -0.1533
     13 C9         -1.6008   -4.6792   -2.3601 C.3       1 <0>         0.1335
     14 N2         -1.5810   -6.1440   -2.3681 N.am      1 <0>        -0.7339
     15 C10        -2.6342   -6.8296   -2.8551 C.2       1 <0>         0.5182
     16 O2         -3.5985   -6.2338   -3.2866 O.2       1 <0>        -0.5317
     17 C11        -2.6138   -8.3364   -2.8633 C.3       1 <0>        -0.1131
     18 C12        -1.4706   -8.8445   -3.7660 C.3       1 <0>        -0.1154
     19 C13        -2.0578  -10.1040   -4.4500 C.3       1 <0>        -0.1246
     20 C14        -3.5289   -9.6963   -4.7119 C.3       1 <0>        -0.1254
     21 C15        -3.9225   -8.8780   -3.4648 C.3       1 <0>        -0.1209
     22 O3          2.8225   -0.4288   -2.4434 O.3       1 <0>        -0.5627
     23 H3         -0.5289    1.8773    0.9072 H         1 <0>         0.0705
     24 H4         -0.5459    1.8868   -0.8726 H         1 <0>         0.0679
     25 H5          1.4019    3.1452    0.0056 H         1 <0>         0.0700
     26 H6          1.9439    1.6943    0.8826 H         1 <0>         0.0650
     27 H7          1.6057    1.9230   -2.1423 H         1 <0>         0.0751
     28 H8          3.1554    1.9392   -1.2670 H         1 <0>         0.0712
     29 H9          0.5293   -0.3651    0.8851 H         1 <0>         0.0664
     30 H10        -1.0205   -0.3814    0.0098 H         1 <0>         0.0759
     31 H11         1.5093   -2.4388   -0.9197 H         1 <0>         0.4010
     32 H12         0.5462   -4.5034   -2.3594 H         1 <0>         0.1017
     33 H13        -0.1905   -4.5223   -0.7392 H         1 <0>         0.1007
     34 H14        -2.4418   -4.3305   -1.7607 H         1 <0>         0.0768
     35 H15        -1.7051   -4.3116   -3.3809 H         1 <0>         0.0768
     36 H16        -0.8098   -6.6205   -2.0230 H         1 <0>         0.3998
     37 H17        -2.4850   -8.7134   -1.8488 H         1 <0>         0.0988
     38 H18        -1.2097   -8.0926   -4.5108 H         1 <0>         0.0701
     39 H19        -0.5991   -9.1072   -3.1664 H         1 <0>         0.0729
     40 H20        -1.5414  -10.3107   -5.3874 H         1 <0>         0.0695
     41 H21        -2.0084  -10.9644   -3.7826 H         1 <0>         0.0702
     42 H22        -3.6005   -9.0819   -5.6094 H         1 <0>         0.0667
     43 H23        -4.1595  -10.5807   -4.8026 H         1 <0>         0.0681
     44 H24        -4.4284   -9.5185   -2.7423 H         1 <0>         0.0682
     45 H25        -4.5724   -8.0510   -3.7506 H         1 <0>         0.0899
     46 H26         3.7394   -0.1305   -2.5166 H         1 <0>         0.3806
@<TRIPOS>BOND
     1    1    8 1
     2    1    2 1
     3    1   23 1
     4    1   24 1
     5    2    3 1
     6    2   25 1
     7    2   26 1
     8    3    4 1
     9    3   27 1
    10    3   28 1
    11    4    5 1
    12    4    6 1
    13    4   22 1
    14    6    7 1
    15    6    8 1
    16    6    9 1
    17    8   29 1
    18    8   30 1
    19    9   10 am
    20    9   31 1
    21   10   11 2
    22   10   12 1
    23   12   13 1
    24   12   32 1
    25   12   33 1
    26   13   14 1
    27   13   34 1
    28   13   35 1
    29   14   15 am
    30   14   36 1
    31   15   16 2
    32   15   17 1
    33   17   21 1
    34   17   18 1
    35   17   37 1
    36   18   19 1
    37   18   38 1
    38   18   39 1
    39   19   20 1
    40   19   40 1
    41   19   41 1
    42   20   21 1
    43   20   42 1
    44   20   43 1
    45   21   44 1
    46   21   45 1
    47   22   46 1
@<TRIPOS>MOLECULE
ZINC66907712
   32    32     0     0     0
SMALL
USER_CHARGES

@<TRIPOS>ATOM
      1 C1         -0.0157    1.3058    0.0092 C.2       1 <0>        -0.1562
      2 C2          0.0021   -0.0041    0.0020 C.2       1 <0>        -0.1851
      3 C3         -1.2926   -0.7753    0.0102 C.3       1 <0>         0.1630
      4 N1         -1.3176   -1.6997   -1.1260 N.am      1 <0>        -0.7410
      5 C4         -2.3857   -2.4981   -1.3218 C.2       1 <0>         0.7128
      6 O1         -3.3285   -2.4511   -0.5555 O.2       1 <0>        -0.5678
      7 N2         -2.4086   -3.3485   -2.3671 N.am      1 <0>        -0.5318
      8 N3         -1.3223   -3.4027   -3.2501 N.am      1 <0>        -0.5321
      9 C5         -1.3453   -4.2532   -4.2954 C.2       1 <0>         0.5173
     10 O2         -2.3064   -4.9716   -4.4716 O.2       1 <0>        -0.5174
     11 C6         -0.1767   -4.3114   -5.2452 C.3       1 <0>        -0.0901
     12 C7         -0.4512   -5.3344   -6.3172 C.ar      1 <0>        -0.1095
     13 C8          0.0167   -6.6272   -6.1753 C.ar      1 <0>        -0.0760
     14 C9         -0.2350   -7.5657   -7.1584 C.ar      1 <0>        -0.1289
     15 C10        -0.9549   -7.2126   -8.2847 C.ar      1 <0>        -0.0851
     16 C11        -1.4241   -5.9209   -8.4286 C.ar      1 <0>        -0.1532
     17 C12        -1.1771   -4.9812   -7.4419 C.ar      1 <0>         0.1156
     18 F1         -1.6394   -3.7192   -7.5793 F         1 <0>        -0.1371
     19 H1          0.9122    1.8585    0.0033 H         1 <0>         0.1060
     20 H2         -0.9582    1.8330    0.0166 H         1 <0>         0.1022
     21 H3          0.9446   -0.5313   -0.0098 H         1 <0>         0.1167
     22 H4         -1.3737   -1.3393    0.9394 H         1 <0>         0.0797
     23 H5         -2.1295   -0.0812   -0.0676 H         1 <0>         0.0751
     24 H6         -0.5655   -1.7372   -1.7373 H         1 <0>         0.3923
     25 H7         -3.1773   -3.9231   -2.5081 H         1 <0>         0.4444
     26 H8         -0.5536   -2.8281   -3.1092 H         1 <0>         0.4195
     27 H9         -0.0327   -3.3335   -5.7046 H         1 <0>         0.1135
     28 H10         0.7231   -4.5916   -4.6975 H         1 <0>         0.1170
     29 H11         0.5795   -6.9041   -5.2961 H         1 <0>         0.1326
     30 H12         0.1314   -8.5755   -7.0468 H         1 <0>         0.1320
     31 H13        -1.1504   -7.9465   -9.0526 H         1 <0>         0.1344
     32 H14        -1.9862   -5.6452   -9.3086 H         1 <0>         0.1371
@<TRIPOS>BOND
     1    1    2 2
     2    1   19 1
     3    1   20 1
     4    2    3 1
     5    2   21 1
     6    3    4 1
     7    3   22 1
     8    3   23 1
     9    4    5 am
    10    4   24 1
    11    5    6 2
    12    5    7 am
    13    7    8 1
    14    7   25 1
    15    8    9 am
    16    8   26 1
    17    9   10 2
    18    9   11 1
    19   11   12 1
    20   11   27 1
    21   11   28 1
    22   12   17 ar
    23   12   13 ar
    24   13   14 ar
    25   13   29 1
    26   14   15 ar
    27   14   30 1
    28   15   16 ar
    29   15   31 1
    30   16   17 ar
    31   16   32 1
    32   17   18 1
@<TRIPOS>MOLECULE
ZINC37970802
   29    28     0     0     0
SMALL
USER_CHARGES

@<TRIPOS>ATOM
      1 C1         -0.0187    1.5258    0.0104 C.3       1 <0>        -0.1530
      2 C2          0.0021   -0.0041    0.0020 C.3       1 <0>        -0.1257
      3 C3         -1.4333   -0.5336    0.0129 C.3       1 <0>        -0.0750
      4 H1         -1.9701   -0.1109    0.8621 H         1 <0>         0.0816
      5 C4         -2.1352   -0.1312   -1.2857 C.3       1 <0>        -0.1457
      6 C5         -1.4133   -2.0590    0.1302 C.3       1 <0>         0.2212
      7 C6         -0.7701   -2.6584   -1.1220 C.3       1 <0>        -0.1500
      8 C7         -0.6345   -2.4497    1.3167 C.1       1 <0>         0.1663
      9 N1         -0.0335   -2.7511    2.2324 N.1       1 <0>        -0.4082
     10 N2         -2.7886   -2.5582    0.2611 N.3       1 <0>        -0.6522
     11 C8         -2.8085   -4.0225    0.3764 C.3       1 <0>         0.0014
     12 C9         -4.2546   -4.5040    0.5106 C.3       1 <0>         0.4589
     13 F1         -4.9823   -4.1152   -0.6193 F         1 <0>        -0.1692
     14 F2         -4.2735   -5.8985    0.6203 F         1 <0>        -0.1793
     15 F3         -4.8302   -3.9384    1.6534 F         1 <0>        -0.1837
     16 H2          1.0039    1.9031    0.0027 H         1 <0>         0.0567
     17 H3         -0.5459    1.8868   -0.8726 H         1 <0>         0.0624
     18 H4         -0.5289    1.8773    0.9072 H         1 <0>         0.0545
     19 H5          0.5123   -0.3556   -0.8948 H         1 <0>         0.0729
     20 H6          0.5293   -0.3651    0.8851 H         1 <0>         0.0586
     21 H7         -3.1578   -0.5085   -1.2779 H         1 <0>         0.0725
     22 H8         -2.1495    0.9555   -1.3693 H         1 <0>         0.0623
     23 H9         -1.5984   -0.5539   -2.1349 H         1 <0>         0.0631
     24 H10         0.2504   -2.2881   -1.2191 H         1 <0>         0.0781
     25 H11        -0.7559   -3.7451   -1.0384 H         1 <0>         0.0645
     26 H12        -1.3468   -2.3692   -2.0005 H         1 <0>         0.0963
     27 H13        -3.2567   -2.1274    1.0443 H         1 <0>         0.3609
     28 H14        -2.3600   -4.4632   -0.5140 H         1 <0>         0.1307
     29 H15        -2.2415   -4.3254    1.2566 H         1 <0>         0.0790
@<TRIPOS>BOND
     1    1    2 1
     2    1   16 1
     3    1   17 1
     4    1   18 1
     5    2    3 1
     6    2   19 1
     7    2   20 1
     8    3    4 1
     9    3    5 1
    10    3    6 1
    11    5   21 1
    12    5   22 1
    13    5   23 1
    14    6    7 1
    15    6    8 1
    16    6   10 1
    17    7   24 1
    18    7   25 1
    19    7   26 1
    20    8    9 3
    21   10   11 1
    22   10   27 1
    23   11   12 1
    24   11   28 1
    25   11   29 1
    26   12   13 1
    27   12   14 1
    28   12   15 1
@<TRIPOS>MOLECULE
ZINC45217828
   34    34     0     0     0
SMALL
USER_CHARGES

@<TRIPOS>ATOM
      1 C1         -0.0184    1.5028    0.0103 C.3       1 <0>        -0.1162
      2 C2          0.0021   -0.0041    0.0020 C.ar      1 <0>        -0.0890
      3 C3          0.0057   -0.6873   -1.2005 C.ar      1 <0>        -0.1014
      4 C4          0.0239   -2.0679   -1.2119 C.ar      1 <0>        -0.0946
      5 C5          0.0391   -2.7710   -0.0132 C.ar      1 <0>        -0.0901
      6 C6          0.0359   -2.0810    1.1932 C.ar      1 <0>        -0.1290
      7 C7          0.0229   -0.7003    1.1969 C.ar      1 <0>        -0.1014
      8 S1          0.0619   -4.5328   -0.0229 S.3       1 <0>        -0.1060
      9 C8          0.0766   -4.9812    1.7348 C.3       1 <0>        -0.1163
     10 C9          0.0970   -6.5048    1.8722 C.3       1 <0>        -0.0903
     11 C10         0.1095   -6.8830    3.3547 C.3       1 <0>         0.2182
     12 C11         1.3546   -6.2941    4.0208 C.3       1 <0>        -0.1466
     13 C12        -1.0961   -6.3475    4.0079 C.1       1 <0>         0.1676
     14 N1         -2.0265   -5.9342    4.5119 N.1       1 <0>        -0.4141
     15 N2          0.1291   -8.3459    3.4867 N.3       1 <0>        -0.6617
     16 C13         0.1415   -8.7469    4.8999 C.3       1 <0>         0.0143
     17 H1          1.0042    1.8801    0.0026 H         1 <0>         0.0723
     18 H2         -0.5455    1.8639   -0.8728 H         1 <0>         0.0682
     19 H3         -0.5286    1.8543    0.9071 H         1 <0>         0.0670
     20 H4         -0.0061   -0.1403   -2.1316 H         1 <0>         0.1289
     21 H5          0.0260   -2.6008   -2.1513 H         1 <0>         0.1291
     22 H6          0.0477   -2.6241    2.1266 H         1 <0>         0.1206
     23 H7          0.0244   -0.1634    2.1339 H         1 <0>         0.1253
     24 H8          0.9637   -4.5616    2.2093 H         1 <0>         0.0987
     25 H9         -0.8161   -4.5846    2.2184 H         1 <0>         0.0848
     26 H10        -0.7900   -6.9244    1.3977 H         1 <0>         0.0843
     27 H11         0.9898   -6.9014    1.3886 H         1 <0>         0.1086
     28 H12         1.3401   -5.2086    3.9229 H         1 <0>         0.0706
     29 H13         1.3635   -6.5635    5.0770 H         1 <0>         0.0692
     30 H14         2.2474   -6.6906    3.5372 H         1 <0>         0.0913
     31 H15        -0.6495   -8.7634    2.9992 H         1 <0>         0.3527
     32 H16         1.0288   -8.3402    5.3852 H         1 <0>         0.0783
     33 H17        -0.7510   -8.3633    5.3943 H         1 <0>         0.0260
     34 H18         0.1559   -9.8346    4.9689 H         1 <0>         0.0808
@<TRIPOS>BOND
     1    1    2 1
     2    1   17 1
     3    1   18 1
     4    1   19 1
     5    2    7 ar
     6    2    3 ar
     7    3    4 ar
     8    3   20 1
     9    4    5 ar
    10    4   21 1
    11    5    6 ar
    12    5    8 1
    13    6    7 ar
    14    6   22 1
    15    7   23 1
    16    8    9 1
    17    9   10 1
    18    9   24 1
    19    9   25 1
    20   10   11 1
    21   10   26 1
    22   10   27 1
    23   11   12 1
    24   11   13 1
    25   11   15 1
    26   12   28 1
    27   12   29 1
    28   12   30 1
    29   13   14 3
    30   15   16 1
    31   15   31 1
    32   16   32 1
    33   16   33 1
    34   16   34 1
@<TRIPOS>MOLECULE
ZINC51294049
   35    34     0     0     0
SMALL
USER_CHARGES

@<TRIPOS>ATOM
      1 C1         -1.8266    0.8934    2.0170 C.3       1 <0>        -0.1547
      2 C2         -1.1972   -0.3319    1.3511 C.3       1 <0>        -0.1114
      3 C3         -2.2652   -1.0847    0.5551 C.3       1 <0>        -0.0481
      4 C4         -2.8456   -0.1624   -0.5188 C.3       1 <0>        -0.1530
      5 C5         -1.6358   -2.3100   -0.1108 C.3       1 <0>         0.0640
      6 N1         -2.6500   -3.0059   -0.9140 N.3       1 <0>        -0.5246
      7 C6         -2.7408   -2.4290   -2.2619 C.3       1 <0>         0.0058
      8 C7         -1.4444   -2.7086   -3.0248 C.3       1 <0>        -0.1934
      9 C8         -2.3745   -4.4475   -0.9758 C.3       1 <0>         0.0028
     10 C9         -3.6281   -5.1865   -1.4482 C.3       1 <0>         0.4578
     11 F1         -3.9290   -4.8031   -2.7596 F         1 <0>        -0.1832
     12 F2         -3.3996   -6.5661   -1.4065 F         1 <0>        -0.1849
     13 F3         -4.7018   -4.8661   -0.6106 F         1 <0>        -0.1736
     14 C10        -3.3821   -1.5346    1.4990 C.3       1 <0>         0.0892
     15 O1         -2.8400   -2.3961    2.5021 O.3       1 <0>        -0.5728
     16 H1         -1.0657    1.4297    2.5840 H         1 <0>         0.0533
     17 H2         -2.2401    1.5505    1.2519 H         1 <0>         0.0561
     18 H3         -2.6223    0.5729    2.6895 H         1 <0>         0.0562
     19 H4         -0.4015   -0.0114    0.6786 H         1 <0>         0.0585
     20 H5         -0.7837   -0.9890    2.1161 H         1 <0>         0.0708
     21 H6         -2.0871    0.0362   -1.2759 H         1 <0>         0.0596
     22 H7         -3.7063   -0.6430   -0.9840 H         1 <0>         0.0706
     23 H8         -3.1571    0.7767   -0.0615 H         1 <0>         0.0610
     24 H9         -0.8166   -1.9923   -0.7559 H         1 <0>         0.0518
     25 H10        -1.2541   -2.9843    0.6558 H         1 <0>         0.0829
     26 H11        -3.5795   -2.8785   -2.7937 H         1 <0>         0.0908
     27 H12        -2.8932   -1.3523   -2.1868 H         1 <0>         0.1032
     28 H13        -1.3208   -3.7844   -3.1491 H         1 <0>         0.0560
     29 H14        -1.4892   -2.2324   -4.0042 H         1 <0>         0.0674
     30 H15        -0.5995   -2.3082   -2.4644 H         1 <0>         0.0591
     31 H16        -1.5588   -4.6318   -1.6750 H         1 <0>         0.0871
     32 H17        -2.0925   -4.8063    0.0141 H         1 <0>         0.1188
     33 H18        -3.8305   -0.6617    1.9735 H         1 <0>         0.0415
     34 H19        -4.1430   -2.0710    0.9320 H         1 <0>         0.0581
     35 H20        -3.4933   -2.7204    3.1370 H         1 <0>         0.3775
@<TRIPOS>BOND
     1    1    2 1
     2    1   16 1
     3    1   17 1
     4    1   18 1
     5    2    3 1
     6    2   19 1
     7    2   20 1
     8    3    4 1
     9    3    5 1
    10    3   14 1
    11    4   21 1
    12    4   22 1
    13    4   23 1
    14    5    6 1
    15    5   24 1
    16    5   25 1
    17    6    7 1
    18    6    9 1
    19    7    8 1
    20    7   26 1
    21    7   27 1
    22    8   28 1
    23    8   29 1
    24    8   30 1
    25    9   10 1
    26    9   31 1
    27    9   32 1
    28   10   11 1
    29   10   12 1
    30   10   13 1
    31   14   15 1
    32   14   33 1
    33   14   34 1
    34   15   35 1
@<TRIPOS>MOLECULE
ZINC13829368
   36    36     0     0     0
SMALL
USER_CHARGES

@<TRIPOS>ATOM
      1 C1         -0.0711    1.1808   -2.3518 C.3       1 <0>        -0.1490
      2 C2         -0.0513   -0.3057   -1.9900 C.3       1 <0>        -0.1373
      3 C3         -1.4450   -0.7369   -1.5291 C.3       1 <0>         0.1204
      4 N1         -1.4261   -2.1603   -1.1827 N.pl3     1 <0>        -0.6919
      5 C4         -2.5504   -2.7630   -0.7479 C.2       1 <0>         0.5602
      6 S1         -3.9668   -1.8402   -0.4779 S.2       1 <0>        -0.6369
      7 N2         -2.5596   -4.0923   -0.5257 N.pl3     1 <0>        -0.5654
      8 C5         -1.3171   -4.8728   -0.6023 C.3       1 <0>         0.0947
      9 C6         -1.5267   -6.0394   -1.5728 C.3       1 <0>        -0.1340
     10 C7         -2.7507   -6.8476   -1.1359 C.3       1 <0>        -0.1246
     11 C8         -3.9939   -5.9560   -1.1767 C.3       1 <0>        -0.1333
     12 C9         -3.8114   -4.7875   -0.1962 C.3       1 <0>         0.1594
     13 H1         -3.7606   -5.1676    0.8241 H         1 <0>         0.0779
     14 C10        -4.9869   -3.8171   -0.3272 C.3       1 <0>        -0.1372
     15 C11        -6.3017   -4.5864   -0.1844 C.3       1 <0>        -0.1508
     16 H2          0.9218    1.4881   -2.6802 H         1 <0>         0.0621
     17 H3         -0.7880    1.3497   -3.1553 H         1 <0>         0.0608
     18 H4         -0.3611    1.7637   -1.4776 H         1 <0>         0.0614
     19 H5          0.2388   -0.8885   -2.8643 H         1 <0>         0.0673
     20 H6          0.6656   -0.4746   -1.1865 H         1 <0>         0.0681
     21 H7         -1.7351   -0.1541   -0.6548 H         1 <0>         0.0886
     22 H8         -2.1619   -0.5680   -2.3326 H         1 <0>         0.0846
     23 H9         -0.6043   -2.6689   -1.2663 H         1 <0>         0.3927
     24 H10        -0.5084   -4.2376   -0.9637 H         1 <0>         0.0772
     25 H11        -1.0671   -5.2596    0.3856 H         1 <0>         0.0850
     26 H12        -1.6871   -5.6515   -2.5787 H         1 <0>         0.0694
     27 H13        -0.6457   -6.6811   -1.5659 H         1 <0>         0.0820
     28 H14        -2.8875   -7.6927   -1.8105 H         1 <0>         0.0713
     29 H15        -2.6001   -7.2144   -0.1206 H         1 <0>         0.0673
     30 H16        -4.1310   -5.5689   -2.1864 H         1 <0>         0.0692
     31 H17        -4.8689   -6.5384   -0.8879 H         1 <0>         0.0860
     32 H18        -4.9221   -3.0602    0.4544 H         1 <0>         0.1227
     33 H19        -4.9525   -3.3345   -1.3040 H         1 <0>         0.0880
     34 H20        -7.1355   -3.8843   -0.1858 H         1 <0>         0.0547
     35 H21        -6.4093   -5.2799   -1.0185 H         1 <0>         0.0441
     36 H22        -6.2970   -5.1430    0.7527 H         1 <0>         0.0450
@<TRIPOS>BOND
     1    1    2 1
     2    1   16 1
     3    1   17 1
     4    1   18 1
     5    2    3 1
     6    2   19 1
     7    2   20 1
     8    3    4 1
     9    3   21 1
    10    3   22 1
    11    4    5 1
    12    4   23 1
    13    5    6 2
    14    5    7 1
    15    7   12 1
    16    7    8 1
    17    8    9 1
    18    8   24 1
    19    8   25 1
    20    9   10 1
    21    9   26 1
    22    9   27 1
    23   10   11 1
    24   10   28 1
    25   10   29 1
    26   11   12 1
    27   11   30 1
    28   11   31 1
    29   12   13 1
    30   12   14 1
    31   14   15 1
    32   14   32 1
    33   14   33 1
    34   15   34 1
    35   15   35 1
    36   15   36 1
@<TRIPOS>MOLECULE
ZINC66752546
   39    39     0     0     0
SMALL
USER_CHARGES

@<TRIPOS>ATOM
      1 C1         -0.0187    1.5258    0.0104 C.3       1 <0>        -0.1469
      2 C2          0.0021   -0.0041    0.0020 C.3       1 <0>        -0.0939
      3 H1         -1.0205   -0.3814    0.0098 H         1 <0>         0.1076
      4 C3          0.7421   -0.5109    1.2415 C.3       1 <0>        -0.0672
      5 S1         -0.1871   -0.0517    2.7303 S.3       1 <0>        -0.2622
      6 C4          0.8098   -0.7166    4.0922 C.3       1 <0>        -0.1201
      7 C5          0.7074   -0.4901   -1.2379 C.2       1 <0>         0.5220
      8 O1          1.7039   -1.1744   -1.1398 O.2       1 <0>        -0.5370
      9 N1          0.2309   -0.1642   -2.4557 N.am      1 <0>        -0.7296
     10 C6          0.9167   -0.6367   -3.6611 C.3       1 <0>         0.1242
     11 C7          0.1767   -0.1298   -4.9006 C.3       1 <0>        -0.0984
     12 C8          0.8820   -0.6158   -6.1405 C.2       1 <0>        -0.1228
     13 C9          0.4504   -1.7012   -6.6983 C.2       1 <0>        -0.1460
     14 C10         1.0554   -2.3125   -7.9281 C.3       1 <0>        -0.0920
     15 C11         1.9331   -1.2872   -8.6491 C.3       1 <0>        -0.1219
     16 C12         2.8768   -0.6488   -7.6220 C.3       1 <0>        -0.1213
     17 C13         2.0374    0.1919   -6.6550 C.3       1 <0>        -0.0836
     18 H2          1.0039    1.9031    0.0027 H         1 <0>         0.0635
     19 H3         -0.5459    1.8868   -0.8726 H         1 <0>         0.0627
     20 H4         -0.5289    1.8773    0.9072 H         1 <0>         0.0809
     21 H5          0.8346   -1.5958    1.1912 H         1 <0>         0.0900
     22 H6          1.7350   -0.0630    1.2804 H         1 <0>         0.0883
     23 H7          0.9009   -1.7972    3.9820 H         1 <0>         0.0775
     24 H8          1.8014   -0.2644    4.0712 H         1 <0>         0.0778
     25 H9          0.3262   -0.4878    5.0419 H         1 <0>         0.1036
     26 H10        -0.5660    0.3831   -2.5342 H         1 <0>         0.4019
     27 H11         1.9393   -0.2594   -3.6688 H         1 <0>         0.0694
     28 H12         0.9314   -1.7265   -3.6671 H         1 <0>         0.0689
     29 H13        -0.8459   -0.5071   -4.8929 H         1 <0>         0.0745
     30 H14         0.1619    0.9601   -4.8946 H         1 <0>         0.0761
     31 H15        -0.3977   -2.1979   -6.2507 H         1 <0>         0.1031
     32 H16         1.6629   -3.1715   -7.6431 H         1 <0>         0.0741
     33 H17         0.2599   -2.6411   -8.5969 H         1 <0>         0.0716
     34 H18         2.5170   -1.7848   -9.4235 H         1 <0>         0.0653
     35 H19         1.3048   -0.5176   -9.0974 H         1 <0>         0.0641
     36 H20         3.4027   -1.4296   -7.0727 H         1 <0>         0.0652
     37 H21         3.5957   -0.0086   -8.1333 H         1 <0>         0.0660
     38 H22         1.6597    1.0741   -7.1718 H         1 <0>         0.0737
     39 H23         2.6605    0.5054   -5.8175 H         1 <0>         0.0708
@<TRIPOS>BOND
     1    1    2 1
     2    1   18 1
     3    1   19 1
     4    1   20 1
     5    2    3 1
     6    2    4 1
     7    2    7 1
     8    4    5 1
     9    4   21 1
    10    4   22 1
    11    5    6 1
    12    6   23 1
    13    6   24 1
    14    6   25 1
    15    7    8 2
    16    7    9 am
    17    9   10 1
    18    9   26 1
    19   10   11 1
    20   10   27 1
    21   10   28 1
    22   11   12 1
    23   11   29 1
    24   11   30 1
    25   12   17 1
    26   12   13 2
    27   13   14 1
    28   13   31 1
    29   14   15 1
    30   14   32 1
    31   14   33 1
    32   15   16 1
    33   15   34 1
    34   15   35 1
    35   16   17 1
    36   16   36 1
    37   16   37 1
    38   17   38 1
    39   17   39 1
@<TRIPOS>MOLECULE
ZINC38079849
   38    39     0     0     0
SMALL
USER_CHARGES

@<TRIPOS>ATOM
      1 C1         -0.0167    1.3780    0.0096 C.ar      1 <0>        -0.1289
      2 C2          1.1706    2.0866    0.0021 C.ar      1 <0>        -0.0890
      3 C3          2.3773    1.4137   -0.0131 C.ar      1 <0>        -0.1532
      4 C4          2.3974    0.0291   -0.0207 C.ar      1 <0>         0.1129
      5 C5          1.2080   -0.6793   -0.0132 C.ar      1 <0>        -0.1038
      6 C6          0.0021   -0.0041    0.0020 C.ar      1 <0>        -0.0794
      7 C7          1.2281   -2.1862   -0.0220 C.3       1 <0>        -0.1019
      8 C8          1.3724   -2.6949    1.3892 C.2       1 <0>         0.5163
      9 O1          1.4512   -1.9110    2.3113 O.2       1 <0>        -0.5286
     10 N1          1.4139   -4.0209    1.6266 N.am      1 <0>        -0.7284
     11 C9          1.5542   -4.5155    2.9984 C.3       1 <0>         0.1232
     12 C10         1.5746   -6.0453    2.9895 C.3       1 <0>         0.0510
     13 O2          2.7410   -6.5021    2.3018 O.3       1 <0>        -0.3185
     14 C11         2.9125   -7.8478    2.2033 C.ar      1 <0>         0.0486
     15 C12         1.9761   -8.7088    2.7512 C.ar      1 <0>        -0.1608
     16 C13         2.1519  -10.0767    2.6508 C.ar      1 <0>        -0.1421
     17 C14         3.2610  -10.5893    2.0038 C.ar      1 <0>        -0.1027
     18 C15         4.1999   -9.7368    1.4539 C.ar      1 <0>        -0.1700
     19 C16         4.0274   -8.3634    1.5462 C.ar      1 <0>         0.1973
     20 N2          4.9737   -7.4981    0.9851 N.pl3     1 <0>        -0.8744
     21 F1          3.5766   -0.6299   -0.0360 F         1 <0>        -0.1379
     22 H1         -0.9594    1.9048    0.0260 H         1 <0>         0.1309
     23 H2          1.1547    3.1665    0.0077 H         1 <0>         0.1334
     24 H3          3.3046    1.9675   -0.0193 H         1 <0>         0.1359
     25 H4         -0.9259   -0.5565    0.0083 H         1 <0>         0.1310
     26 H5          0.2975   -2.5595   -0.4494 H         1 <0>         0.1097
     27 H6          2.0689   -2.5348   -0.6216 H         1 <0>         0.1068
     28 H7          1.3509   -4.6479    0.8891 H         1 <0>         0.4045
     29 H8          2.4849   -4.1422    3.4258 H         1 <0>         0.0799
     30 H9          0.7134   -4.1668    3.5981 H         1 <0>         0.0906
     31 H10         1.5895   -6.4145    4.0150 H         1 <0>         0.0796
     32 H11         0.6846   -6.4176    2.4822 H         1 <0>         0.0693
     33 H12         1.1086   -8.3117    3.2574 H         1 <0>         0.1260
     34 H13         1.4210  -10.7465    3.0793 H         1 <0>         0.1217
     35 H14         3.3943  -11.6584    1.9281 H         1 <0>         0.1234
     36 H15         5.0655  -10.1399    0.9493 H         1 <0>         0.1269
     37 H16         4.8537   -6.5380    1.0536 H         1 <0>         0.4027
     38 H17         5.7495   -7.8585    0.5279 H         1 <0>         0.3983
@<TRIPOS>BOND
     1    1    6 ar
     2    1    2 ar
     3    1   22 1
     4    2    3 ar
     5    2   23 1
     6    3    4 ar
     7    3   24 1
     8    4    5 ar
     9    4   21 1
    10    5    6 ar
    11    5    7 1
    12    6   25 1
    13    7    8 1
    14    7   26 1
    15    7   27 1
    16    8    9 2
    17    8   10 am
    18   10   11 1
    19   10   28 1
    20   11   12 1
    21   11   29 1
    22   11   30 1
    23   12   13 1
    24   12   31 1
    25   12   32 1
    26   13   14 1
    27   14   19 ar
    28   14   15 ar
    29   15   16 ar
    30   15   33 1
    31   16   17 ar
    32   16   34 1
    33   17   18 ar
    34   17   35 1
    35   18   19 ar
    36   18   36 1
    37   19   20 1
    38   20   37 1
    39   20   38 1
@<TRIPOS>MOLECULE
ZINC42006944
   36    36     0     0     0
SMALL
USER_CHARGES

@<TRIPOS>ATOM
      1 C1         -0.9477    1.7552   -0.3499 C.3       1 <0>        -0.1487
      2 C2         -0.5536    0.2769   -0.3432 C.3       1 <0>        -0.1308
      3 C3         -1.8137   -0.5865   -0.2557 C.3       1 <0>        -0.0921
      4 C4         -1.4157   -2.0577   -0.1212 C.3       1 <0>        -0.0497
      5 C5         -0.5405   -2.4495   -1.2838 C.ar      1 <0>        -0.0321
      6 C6         -0.7787   -1.9189   -2.5378 C.ar      1 <0>        -0.0926
      7 C7          0.0240   -2.2784   -3.6043 C.ar      1 <0>        -0.1212
      8 C8          1.0652   -3.1681   -3.4166 C.ar      1 <0>        -0.1280
      9 C9          1.3039   -3.6981   -2.1624 C.ar      1 <0>        -0.1209
     10 C10         0.5038   -3.3353   -1.0950 C.ar      1 <0>        -0.1188
     11 C11        -2.6551   -2.9148   -0.1141 C.2       1 <0>         0.5077
     12 O1         -3.4116   -2.9006   -1.0701 O.co2     1 <0>        -0.6590
     13 O2         -2.9014   -3.6225    0.8477 O.co2     1 <0>        -0.6790
     14 S1         -0.5051   -2.2984    1.4291 S.3       1 <0>        -0.1870
     15 C12        -1.6813   -1.7886    2.7126 C.3       1 <0>        -0.1518
     16 C13        -1.0325   -1.9437    4.0895 C.3       1 <0>         0.0149
     17 N1         -1.9850   -1.5308    5.1289 N.4       1 <0>        -0.6337
     18 H1         -0.0500    2.3703   -0.4123 H         1 <0>         0.0524
     19 H2         -1.5868    1.9570   -1.2096 H         1 <0>         0.0534
     20 H3         -1.4871    1.9916    0.5673 H         1 <0>         0.0457
     21 H4         -0.0142    0.0405   -1.2604 H         1 <0>         0.0671
     22 H5          0.0855    0.0751    0.5164 H         1 <0>         0.0714
     23 H6         -2.3993   -0.2876    0.6138 H         1 <0>         0.0517
     24 H7         -2.4095   -0.4524   -1.1585 H         1 <0>         0.0814
     25 H8         -1.5921   -1.2238   -2.6845 H         1 <0>         0.1241
     26 H9         -0.1625   -1.8644   -4.5842 H         1 <0>         0.1207
     27 H10         1.6919   -3.4495   -4.2499 H         1 <0>         0.1186
     28 H11         2.1171   -4.3935   -2.0158 H         1 <0>         0.1190
     29 H12         0.6926   -3.7464   -0.1144 H         1 <0>         0.1250
     30 H13        -1.9593   -0.7462    2.5573 H         1 <0>         0.0881
     31 H14        -2.5722   -2.4142    2.6582 H         1 <0>         0.1266
     32 H15        -0.7545   -2.9861    4.2449 H         1 <0>         0.1396
     33 H16        -0.1416   -1.3181    4.1439 H         1 <0>         0.1346
     34 H17        -2.2424   -0.5658    4.9851 H         1 <0>         0.4320
     35 H18        -2.8097   -2.1099    5.0785 H         1 <0>         0.4371
     36 H19        -1.5572   -1.6331    6.0370 H         1 <0>         0.4341
@<TRIPOS>BOND
     1    1    2 1
     2    1   18 1
     3    1   19 1
     4    1   20 1
     5    2    3 1
     6    2   21 1
     7    2   22 1
     8    3    4 1
     9    3   23 1
    10    3   24 1
    11    4    5 1
    12    4   11 1
    13    4   14 1
    14    5   10 ar
    15    5    6 ar
    16    6    7 ar
    17    6   25 1
    18    7    8 ar
    19    7   26 1
    20    8    9 ar
    21    8   27 1
    22    9   10 ar
    23    9   28 1
    24   10   29 1
    25   11   12 2
    26   11   13 1
    27   14   15 1
    28   15   16 1
    29   15   30 1
    30   15   31 1
    31   16   17 1
    32   16   32 1
    33   16   33 1
    34   17   34 1
    35   17   35 1
    36   17   36 1
@<TRIPOS>MOLECULE
ZINC49580541
   31    31     0     0     0
SMALL
USER_CHARGES

@<TRIPOS>ATOM
      1 C1         -0.0019    1.2926   -0.6830 C.ar      1 <0>        -0.1329
      2 C2          1.1710    2.0094   -0.5510 C.ar      1 <0>        -0.0712
      3 C3          2.3904    1.3442   -0.5178 C.ar      1 <0>        -0.0956
      4 C4          2.4262   -0.0411   -0.6174 C.ar      1 <0>        -0.1059
      5 C5          1.2505   -0.7535   -0.7491 C.ar      1 <0>        -0.1330
      6 C6          0.0365   -0.0881   -0.7821 C.ar      1 <0>         0.0935
      7 F1         -1.1124   -0.7872   -0.9111 F         1 <0>        -0.1368
      8 S1          3.8887    2.2560   -0.3502 S.3       1 <0>        -0.1075
      9 C7          5.1805    0.9825   -0.3566 C.3       1 <0>        -0.1094
     10 C8          6.5518    1.6462   -0.2157 C.3       1 <0>        -0.1031
     11 C9          7.6413    0.5720   -0.2212 C.3       1 <0>        -0.1035
     12 C10         9.0126    1.2358   -0.0803 C.3       1 <0>        -0.1139
     13 C11        10.0759    0.1736    0.0298 C.2       1 <0>         0.3740
     14 N1         10.8308   -0.0923   -0.9842 N.2       1 <0>        -0.4345
     15 O1         10.7355    0.6884   -2.1617 O.3       1 <0>        -0.4123
     16 N2         10.2429   -0.5138    1.2115 N.pl3     1 <0>        -0.8340
     17 H1         -0.9503    1.8089   -0.7044 H         1 <0>         0.1427
     18 H2          1.1406    3.0863   -0.4742 H         1 <0>         0.1395
     19 H3          3.3728   -0.5604   -0.5921 H         1 <0>         0.1327
     20 H4          1.2779   -1.8303   -0.8266 H         1 <0>         0.1396
     21 H5          5.0205    0.2985    0.4769 H         1 <0>         0.0899
     22 H6          5.1397    0.4283   -1.2944 H         1 <0>         0.0899
     23 H7          6.7117    2.3302   -1.0492 H         1 <0>         0.0781
     24 H8          6.5926    2.2004    0.7220 H         1 <0>         0.0776
     25 H9          7.4814   -0.1119    0.6123 H         1 <0>         0.0686
     26 H10         7.6005    0.0179   -1.1589 H         1 <0>         0.0699
     27 H11         9.2077    1.8559   -0.9552 H         1 <0>         0.0980
     28 H12         9.0254    1.8569    0.8154 H         1 <0>         0.0838
     29 H13        11.3395    0.4141   -2.8654 H         1 <0>         0.3994
     30 H14         9.6760   -0.3142    1.9730 H         1 <0>         0.4119
     31 H15        10.9273   -1.1975    1.2824 H         1 <0>         0.4048
@<TRIPOS>BOND
     1    1    6 ar
     2    1    2 ar
     3    1   17 1
     4    2    3 ar
     5    2   18 1
     6    3    4 ar
     7    3    8 1
     8    4    5 ar
     9    4   19 1
    10    5    6 ar
    11    5   20 1
    12    6    7 1
    13    8    9 1
    14    9   10 1
    15    9   21 1
    16    9   22 1
    17   10   11 1
    18   10   23 1
    19   10   24 1
    20   11   12 1
    21   11   25 1
    22   11   26 1
    23   12   13 1
    24   12   27 1
    25   12   28 1
    26   13   14 2
    27   13   16 1
    28   14   15 1
    29   15   29 1
    30   16   30 1
    31   16   31 1
@<TRIPOS>MOLECULE
ZINC52860490
   38    38     0     0     0
SMALL
USER_CHARGES

@<TRIPOS>ATOM
      1 C1         -0.0187    1.5258    0.0104 C.3       1 <0>        -0.1519
      2 C2          0.0021   -0.0041    0.0020 C.3       1 <0>        -0.1227
      3 C3         -1.4333   -0.5336    0.0129 C.3       1 <0>        -0.1425
      4 C4         -1.4126   -2.0635    0.0045 C.3       1 <0>         0.1613
      5 N1         -2.7870   -2.5706    0.0149 N.pl3     1 <0>        -0.6597
      6 C5         -3.4863   -2.8173   -1.2486 C.3       1 <0>         0.1495
      7 C6         -3.2305   -4.2565   -1.7005 C.3       1 <0>        -0.1530
      8 C7         -3.4288   -2.8181    1.2260 C.ar      1 <0>         0.2244
      9 C8         -4.1703   -1.8174    1.8393 C.ar      1 <0>        -0.1156
     10 C9         -4.8059   -2.0644    3.0398 C.ar      1 <0>        -0.0866
     11 C10        -4.7095   -3.3097    3.6402 C.ar      1 <0>        -0.0411
     12 C11        -3.9768   -4.3152    3.0433 C.ar      1 <0>        -0.0836
     13 C12        -3.3337   -4.0801    1.8278 C.ar      1 <0>        -0.0503
     14 C13        -2.5519   -5.1550    1.1806 C.2       1 <0>         0.3848
     15 N2         -1.9495   -4.9304    0.0486 N.2       1 <0>        -0.3529
     16 O1         -1.2006   -5.9600   -0.5713 O.3       1 <0>        -0.4332
     17 N3         -2.4603   -6.4007    1.7785 N.pl3     1 <0>        -0.8735
     18 Cl1        -5.5136   -3.6058    5.1500 Cl        1 <0>        -0.0622
     19 H1          1.0039    1.9031    0.0027 H         1 <0>         0.0529
     20 H2         -0.5459    1.8868   -0.8726 H         1 <0>         0.0529
     21 H3         -0.5289    1.8773    0.9072 H         1 <0>         0.0526
     22 H4          0.5123   -0.3556   -0.8948 H         1 <0>         0.0606
     23 H5          0.5293   -0.3651    0.8851 H         1 <0>         0.0595
     24 H6         -1.9435   -0.1821    0.9097 H         1 <0>         0.0596
     25 H7         -1.9605   -0.1726   -0.8702 H         1 <0>         0.0614
     26 H8         -0.9024   -2.4150   -0.8923 H         1 <0>         0.0658
     27 H9         -0.8854   -2.4246    0.8875 H         1 <0>         0.0557
     28 H10        -4.5564   -2.6656   -1.1072 H         1 <0>         0.0550
     29 H11        -3.1187   -2.1273   -2.0081 H         1 <0>         0.0637
     30 H12        -3.7508   -4.4401   -2.6405 H         1 <0>         0.0335
     31 H13        -2.1604   -4.4082   -1.8418 H         1 <0>         0.0656
     32 H14        -3.5981   -4.9465   -0.9410 H         1 <0>         0.0566
     33 H15        -4.2497   -0.8445    1.3770 H         1 <0>         0.1396
     34 H16        -5.3811   -1.2827    3.5137 H         1 <0>         0.1389
     35 H17        -3.9043   -5.2842    3.5147 H         1 <0>         0.1347
     36 H18        -0.7903   -5.6992   -1.4072 H         1 <0>         0.3979
     37 H19        -2.9092   -6.5680    2.6219 H         1 <0>         0.3934
     38 H20        -1.9473   -7.1060    1.3538 H         1 <0>         0.4087
@<TRIPOS>BOND
     1    1    2 1
     2    1   19 1
     3    1   20 1
     4    1   21 1
     5    2    3 1
     6    2   22 1
     7    2   23 1
     8    3    4 1
     9    3   24 1
    10    3   25 1
    11    4    5 1
    12    4   26 1
    13    4   27 1
    14    5    6 1
    15    5    8 1
    16    6    7 1
    17    6   28 1
    18    6   29 1
    19    7   30 1
    20    7   31 1
    21    7   32 1
    22    8   13 ar
    23    8    9 ar
    24    9   10 ar
    25    9   33 1
    26   10   11 ar
    27   10   34 1
    28   11   12 ar
    29   11   18 1
    30   12   13 ar
    31   12   35 1
    32   13   14 1
    33   14   15 2
    34   14   17 1
    35   15   16 1
    36   16   36 1
    37   17   37 1
    38   17   38 1
@<TRIPOS>MOLECULE
ZINC62996516
   51    52     0     0     0
SMALL
NO_CHARGES

@<TRIPOS>ATOM
      1 C1          0.0226    1.5146   -0.0061 C.3       1 <0>        -0.1824
      2 C2          0.0305   -0.0154   -0.0055 C.3       1 <0>        -0.0259
      3 N1         -1.3519   -0.5123   -0.0047 N.4       1 <0>        -0.5032
      4 C3         -1.3442   -1.9812   -0.0041 C.3       1 <0>         0.0126
      5 C4         -0.7308   -2.4884   -1.3112 C.3       1 <0>        -0.1499
      6 C5         -0.6927   -4.0198   -1.2924 C.3       1 <0>         0.1406
      7 N2         -2.0471   -4.5232   -1.0261 N.pl3     1 <0>        -0.5934
      8 C6         -2.7641   -4.0300    0.1576 C.3       1 <0>         0.1427
      9 C7         -2.7790   -2.4985    0.1225 C.3       1 <0>        -0.1521
     10 C8         -2.6419   -5.4527   -1.8824 C.ar      1 <0>        -0.2339
     11 C9         -2.0025   -5.8248   -3.0581 C.ar      1 <0>        -0.0968
     12 C10        -2.5931   -6.7445   -3.9023 C.ar      1 <0>        -0.1810
     13 C11        -3.8199   -7.2944   -3.5785 C.ar      1 <0>        -0.4517
     14 C12        -4.4592   -6.9262   -2.4088 C.ar      1 <0>        -0.1857
     15 C13        -3.8715   -6.0114   -1.5574 C.ar      1 <0>        -0.0900
     16 N3         -4.4155   -8.2244   -4.4357 N.4       1 <0>        -0.2154
     17 C14        -4.6101   -9.4936   -3.7221 C.3       1 <0>        -0.0186
     18 C15        -5.1458  -10.5477   -4.6932 C.3       1 <0>        -0.1842
     19 C16        -5.7161   -7.7118   -4.8868 C.3       1 <0>        -0.0244
     20 C17        -5.5032   -6.4570   -5.7359 C.3       1 <0>        -0.1524
     21 H1          1.0483    1.8833   -0.0067 H         1 <0>         0.0913
     22 H2         -0.4936    1.8749   -0.8960 H         1 <0>         0.0726
     23 H3         -0.4928    1.8756    0.8840 H         1 <0>         0.0714
     24 H4          0.5459   -0.3764   -0.8955 H         1 <0>         0.1183
     25 H5          0.5467   -0.3757    0.8844 H         1 <0>         0.1136
     26 H6         -1.8289   -0.1781    0.8193 H         1 <0>         0.3832
     27 H7         -0.7529   -2.3410    0.8380 H         1 <0>         0.1145
     28 H8         -1.3356   -2.1499   -2.1524 H         1 <0>         0.0761
     29 H9          0.2829   -2.1005   -1.4119 H         1 <0>         0.0688
     30 H10        -0.3491   -4.3887   -2.2588 H         1 <0>         0.0846
     31 H11        -0.0161   -4.3588   -0.5079 H         1 <0>         0.0274
     32 H12        -3.7873   -4.4056    0.1479 H         1 <0>         0.0837
     33 H13        -2.2564   -4.3699    1.0603 H         1 <0>         0.0277
     34 H14        -3.2231   -2.1178    1.0423 H         1 <0>         0.0685
     35 H15        -3.3645   -2.1599   -0.7322 H         1 <0>         0.0762
     36 H16        -1.0447   -5.3952   -3.3119 H         1 <0>         0.0444
     37 H17        -2.0965   -7.0343   -4.8165 H         1 <0>         0.0352
     38 H18        -5.4173   -7.3576   -2.1589 H         1 <0>         0.0328
     39 H19        -4.3692   -5.7275   -0.6419 H         1 <0>         0.0431
     40 H20        -3.6579   -9.8290   -3.3110 H         1 <0>         0.0998
     41 H21        -5.3249   -9.3491   -2.9121 H         1 <0>         0.0924
     42 H22        -5.2902  -11.4894   -4.1637 H         1 <0>         0.0729
     43 H23        -6.0980  -10.2123   -5.1043 H         1 <0>         0.0621
     44 H24        -4.4310  -10.6922   -5.5032 H         1 <0>         0.0605
     45 H25        -6.2196   -8.4729   -5.4830 H         1 <0>         0.0663
     46 H26        -6.3295   -7.4644   -4.0203 H         1 <0>         0.0935
     47 H27        -6.4683   -6.0767   -6.0706 H         1 <0>         0.0586
     48 H28        -4.9997   -5.6960   -5.1397 H         1 <0>         0.0919
     49 H29        -4.8899   -6.7044   -6.6023 H         1 <0>         0.0481
     50 H30        -1.8296   -0.1787   -0.8284 H         1 <0>         0.3884
     51 H31        -3.8182   -8.3759   -5.2347 H         1 <0>         0.3774
@<TRIPOS>BOND
     1    1    2 1
     2    1   21 1
     3    1   22 1
     4    1   23 1
     5    2    3 1
     6    2   24 1
     7    2   25 1
     8    3    4 1
     9    3   26 1
    10    3   50 1
    11    4    9 1
    12    4    5 1
    13    4   27 1
    14    5    6 1
    15    5   28 1
    16    5   29 1
    17    6    7 1
    18    6   30 1
    19    6   31 1
    20    7    8 1
    21    7   10 1
    22    8    9 1
    23    8   32 1
    24    8   33 1
    25    9   34 1
    26    9   35 1
    27   10   15 ar
    28   10   11 ar
    29   11   12 ar
    30   11   36 1
    31   12   13 ar
    32   12   37 1
    33   13   14 ar
    34   13   16 1
    35   14   15 ar
    36   14   38 1
    37   15   39 1
    38   16   17 1
    39   16   19 1
    40   16   51 1
    41   17   18 1
    42   17   40 1
    43   17   41 1
    44   18   42 1
    45   18   43 1
    46   18   44 1
    47   19   20 1
    48   19   45 1
    49   19   46 1
    50   20   47 1
    51   20   48 1
    52   20   49 1
@<TRIPOS>MOLECULE
ZINC37376682
   43    43     0     0     0
SMALL
USER_CHARGES

@<TRIPOS>ATOM
      1 C1         -0.0187    1.5258    0.0104 C.3       1 <0>        -0.1698
      2 C2          0.0021   -0.0041    0.0020 C.3       1 <0>         0.0546
      3 C3          0.7421   -0.5109    1.2415 C.3       1 <0>        -0.1700
      4 C4         -1.4333   -0.5336    0.0129 C.3       1 <0>         0.0672
      5 O1         -2.1022   -0.0728    1.1886 O.3       1 <0>        -0.5524
      6 N1          0.6897   -0.4778   -1.2066 N.4       1 <0>        -0.4996
      7 C5          2.0678    0.0307   -1.2170 C.3       1 <0>         0.0645
      8 C6          2.7732   -0.4553   -2.4569 C.ar      1 <0>        -0.2692
      9 C7          3.4587   -1.6607   -2.4372 C.ar      1 <0>         0.2302
     10 C8          4.1077   -2.1079   -3.5782 C.ar      1 <0>        -0.2774
     11 C9          4.0710   -1.3500   -4.7389 C.ar      1 <0>         0.2424
     12 C10         3.3848   -0.1451   -4.7589 C.ar      1 <0>        -0.3333
     13 C11         2.7321    0.3000   -3.6191 C.ar      1 <0>         0.2318
     14 O2          2.0557    1.4785   -3.6400 O.3       1 <0>        -0.3156
     15 C12         2.0551    2.2044   -4.8709 C.3       1 <0>         0.0219
     16 O3          4.7078   -1.7879   -5.8567 O.3       1 <0>        -0.3011
     17 C13         4.6284   -0.9565   -7.0163 C.3       1 <0>         0.0204
     18 O4          3.4947   -2.4034   -1.2998 O.3       1 <0>        -0.3147
     19 C14         4.2191   -3.6341   -1.3512 C.3       1 <0>         0.0207
     20 H1          1.0039    1.9031    0.0027 H         1 <0>         0.0824
     21 H2         -0.5459    1.8868   -0.8726 H         1 <0>         0.0791
     22 H3         -0.5289    1.8773    0.9072 H         1 <0>         0.1108
     23 H4          0.2319   -0.1594    2.1383 H         1 <0>         0.1108
     24 H5          0.7568   -1.6008    1.2356 H         1 <0>         0.0796
     25 H6          1.7647   -0.1336    1.2338 H         1 <0>         0.0826
     26 H7         -1.9605   -0.1726   -0.8702 H         1 <0>         0.0672
     27 H8         -1.4185   -1.6235    0.0069 H         1 <0>         0.0675
     28 H9         -3.0191   -0.3710    1.2619 H         1 <0>         0.4042
     29 H10         0.7033   -1.4867   -1.2121 H         1 <0>         0.4238
     30 H11         2.0530    1.1205   -1.2110 H         1 <0>         0.1408
     31 H12         2.5950   -0.3304   -0.3340 H         1 <0>         0.1415
     32 H13         4.6422   -3.0463   -3.5627 H         1 <0>         0.1508
     33 H14         3.3565    0.4453   -5.6627 H         1 <0>         0.1482
     34 H15         3.0801    2.4501   -5.1483 H         1 <0>         0.0669
     35 H16         1.6035    1.5937   -5.6527 H         1 <0>         0.0652
     36 H17         1.4810    3.1232   -4.7505 H         1 <0>         0.1140
     37 H18         5.1778   -1.4214   -7.8350 H         1 <0>         0.1137
     38 H19         3.5843   -0.8325   -7.3037 H         1 <0>         0.0629
     39 H20         5.0625    0.0185   -6.7948 H         1 <0>         0.0639
     40 H21         5.2604   -3.4325   -1.6024 H         1 <0>         0.0693
     41 H22         4.1684   -4.1264   -0.3800 H         1 <0>         0.1135
     42 H23         3.7810   -4.2821   -2.1103 H         1 <0>         0.0676
     43 H24         0.2017   -0.1436   -2.0240 H         1 <0>         0.4233
@<TRIPOS>BOND
     1    1    2 1
     2    1   20 1
     3    1   21 1
     4    1   22 1
     5    2    3 1
     6    2    4 1
     7    2    6 1
     8    3   23 1
     9    3   24 1
    10    3   25 1
    11    4    5 1
    12    4   26 1
    13    4   27 1
    14    5   28 1
    15    6    7 1
    16    6   29 1
    17    6   43 1
    18    7    8 1
    19    7   30 1
    20    7   31 1
    21    8   13 ar
    22    8    9 ar
    23    9   10 ar
    24    9   18 1
    25   10   11 ar
    26   10   32 1
    27   11   12 ar
    28   11   16 1
    29   12   13 ar
    30   12   33 1
    31   13   14 1
    32   14   15 1
    33   15   34 1
    34   15   35 1
    35   15   36 1
    36   16   17 1
    37   17   37 1
    38   17   38 1
    39   17   39 1
    40   18   19 1
    41   19   40 1
    42   19   41 1
    43   19   42 1
@<TRIPOS>MOLECULE
ZINC44991069
   47    48     0     0     0
SMALL
USER_CHARGES

@<TRIPOS>ATOM
      1 C1         -0.0184    1.5028    0.0103 C.3       1 <0>        -0.0984
      2 C2          0.0021   -0.0041    0.0020 C.2       1 <0>         0.1037
      3 C3          0.0080   -0.8237   -1.1409 C.2       1 <0>        -0.2074
      4 C4          0.0273   -2.1079   -0.7353 C.2       1 <0>        -0.0242
      5 O1          0.0335   -2.1190    0.6064 O.3       1 <0>        -0.0656
      6 N1          0.0230   -0.7748    1.0524 N.2       1 <0>        -0.2711
      7 C5          0.0393   -3.3197   -1.6311 C.3       1 <0>         0.0826
      8 N2          1.4280   -3.6948   -1.9290 N.4       1 <0>        -0.5047
      9 C6          1.4397   -4.8759   -2.8023 C.3       1 <0>        -0.0437
     10 C7          2.8860   -5.2666   -3.1125 C.3       1 <0>         0.0858
     11 H1          3.4076   -5.4965   -2.1833 H         1 <0>         0.1334
     12 C8          2.8982   -6.4968   -4.0220 C.3       1 <0>         0.0310
     13 O2          4.2454   -6.9316   -4.2173 O.3       1 <0>        -0.3575
     14 C9          4.3692   -8.0813   -5.0568 C.3       1 <0>         0.0984
     15 H2          3.5552   -8.0913   -5.7817 H         1 <0>         0.0618
     16 C10         4.3048   -9.3475   -4.2003 C.3       1 <0>        -0.1436
     17 C11         5.4473   -9.3335   -3.1827 C.3       1 <0>        -0.1130
     18 C12         6.7868   -9.2845   -3.9205 C.3       1 <0>        -0.1238
     19 C13         6.8512   -8.0183   -4.7770 C.3       1 <0>        -0.1109
     20 C14         5.7087   -8.0323   -5.7946 C.3       1 <0>        -0.0883
     21 H3          5.8031   -8.9093   -6.4349 H         1 <0>         0.0838
     22 C15         5.7730   -6.7661   -6.6511 C.3       1 <0>        -0.1470
     23 O3          3.5419   -4.1810   -3.7708 O.3       1 <0>        -0.5433
     24 H4          1.0042    1.8801    0.0026 H         1 <0>         0.0999
     25 H5         -0.5455    1.8639   -0.8728 H         1 <0>         0.0969
     26 H6         -0.5286    1.8543    0.9071 H         1 <0>         0.0924
     27 H7         -0.0015   -0.4827   -2.1656 H         1 <0>         0.1752
     28 H8         -0.4610   -4.1477   -1.1290 H         1 <0>         0.1581
     29 H9         -0.4822   -3.0898   -2.5603 H         1 <0>         0.1646
     30 H10         1.8911   -2.9282   -2.3938 H         1 <0>         0.4359
     31 H11         0.9394   -5.7040   -2.3001 H         1 <0>         0.1498
     32 H12         0.9181   -4.6460   -3.7314 H         1 <0>         0.1426
     33 H13         2.3217   -7.2973   -3.5582 H         1 <0>         0.0672
     34 H14         2.4557   -6.2413   -4.9848 H         1 <0>         0.0626
     35 H15         3.3505   -9.3825   -3.6746 H         1 <0>         0.0604
     36 H16         4.3992  -10.2245   -4.8406 H         1 <0>         0.0764
     37 H17         5.3529   -8.4565   -2.5424 H         1 <0>         0.0650
     38 H18         5.4014  -10.2356   -2.5725 H         1 <0>         0.0614
     39 H19         7.6007   -9.2745   -3.1956 H         1 <0>         0.0646
     40 H20         6.8812  -10.1615   -4.5608 H         1 <0>         0.0620
     41 H21         6.7567   -7.1413   -4.1367 H         1 <0>         0.0693
     42 H22         7.8054   -7.9834   -5.3026 H         1 <0>         0.0633
     43 H23         5.6786   -5.8891   -6.0107 H         1 <0>         0.0621
     44 H24         6.7273   -6.7312   -7.1767 H         1 <0>         0.0585
     45 H25         4.9591   -6.7761   -7.3760 H         1 <0>         0.0499
     46 H26         3.1308   -3.9219   -4.6068 H         1 <0>         0.3878
     47 H27         1.9107   -3.9076   -1.0689 H         1 <0>         0.4361
@<TRIPOS>BOND
     1    1    2 1
     2    1   24 1
     3    1   25 1
     4    1   26 1
     5    2    6 2
     6    2    3 1
     7    3    4 2
     8    3   27 1
     9    4    5 1
    10    4    7 1
    11    5    6 1
    12    7    8 1
    13    7   28 1
    14    7   29 1
    15    8    9 1
    16    8   30 1
    17    8   47 1
    18    9   10 1
    19    9   31 1
    20    9   32 1
    21   10   11 1
    22   10   12 1
    23   10   23 1
    24   12   13 1
    25   12   33 1
    26   12   34 1
    27   13   14 1
    28   14   15 1
    29   14   20 1
    30   14   16 1
    31   16   17 1
    32   16   35 1
    33   16   36 1
    34   17   18 1
    35   17   37 1
    36   17   38 1
    37   18   19 1
    38   18   39 1
    39   18   40 1
    40   19   20 1
    41   19   41 1
    42   19   42 1
    43   20   21 1
    44   20   22 1
    45   22   43 1
    46   22   44 1
    47   22   45 1
    48   23   46 1
@<TRIPOS>MOLECULE
ZINC52869246
   36    35     0     0     0
SMALL
USER_CHARGES

@<TRIPOS>ATOM
      1 C1         -1.1128   -1.3665    2.2138 C.2       1 <0>        -0.1036
      2 C2         -1.7928   -1.5273    1.1057 C.2       1 <0>        -0.2345
      3 C3         -1.3934   -0.7776   -0.1391 C.3       1 <0>         0.0134
      4 N1         -1.1732   -1.7306   -1.2351 N.4       1 <0>        -0.3680
      5 C4         -0.1598   -2.7147   -0.8321 C.3       1 <0>         0.0279
      6 C5          1.1655   -2.0226   -0.6434 C.2       1 <0>        -0.2323
      7 C6          1.8096   -2.1392    0.4913 C.2       1 <0>        -0.1043
      8 C7         -2.4321   -2.4221   -1.5431 C.3       1 <0>        -0.0324
      9 C8         -3.4340   -1.4291   -2.0734 C.2       1 <0>         0.5158
     10 O1         -3.1294   -0.2609   -2.1839 O.2       1 <0>        -0.4501
     11 N2         -4.6686   -1.8398   -2.4249 N.am      1 <0>        -0.6747
     12 C9         -5.5646   -0.9517   -2.8992 C.2       1 <0>         0.7045
     13 O2         -5.2593    0.2194   -3.0099 O.2       1 <0>        -0.5078
     14 N3         -6.7992   -1.3624   -3.2506 N.am      1 <0>        -0.7285
     15 C10        -7.7732   -0.3971   -3.7662 C.3       1 <0>         0.0915
     16 C11        -9.0844   -1.1174   -4.0869 C.3       1 <0>         0.4504
     17 F1         -9.5869   -1.7111   -2.9241 F         1 <0>        -0.1760
     18 F2        -10.0145   -0.1955   -4.5793 F         1 <0>        -0.1637
     19 F3         -8.8507   -2.1041   -5.0508 F         1 <0>        -0.1759
     20 H1         -1.3991   -1.9037    3.1059 H         1 <0>         0.1237
     21 H2         -0.2632   -0.7000    2.2340 H         1 <0>         0.1130
     22 H3         -2.6397   -2.1972    1.0843 H         1 <0>         0.1295
     23 H4         -2.1868   -0.0832   -0.4153 H         1 <0>         0.1495
     24 H5         -0.4745   -0.2228    0.0501 H         1 <0>         0.1365
     25 H6         -0.4612   -3.1840    0.1044 H         1 <0>         0.1347
     26 H7         -0.0649   -3.4763   -1.6061 H         1 <0>         0.1383
     27 H8          1.5843   -1.4304   -1.4437 H         1 <0>         0.1360
     28 H9          1.3909   -2.7314    1.2916 H         1 <0>         0.1111
     29 H10         2.7594   -1.6432    0.6266 H         1 <0>         0.1241
     30 H11        -2.2500   -3.1909   -2.2941 H         1 <0>         0.1693
     31 H12        -2.8236   -2.8847   -0.6371 H         1 <0>         0.1674
     32 H13        -4.9123   -2.7745   -2.3365 H         1 <0>         0.4218
     33 H14        -7.0429   -2.2971   -3.1623 H         1 <0>         0.4110
     34 H15        -7.9552    0.3717   -3.0152 H         1 <0>         0.1244
     35 H16        -7.3817    0.0655   -4.6722 H         1 <0>         0.1245
     36 H17        -0.8533   -1.2341   -2.0532 H         1 <0>         0.4335
@<TRIPOS>BOND
     1    1    2 2
     2    1   20 1
     3    1   21 1
     4    2    3 1
     5    2   22 1
     6    3    4 1
     7    3   23 1
     8    3   24 1
     9    4    5 1
    10    4    8 1
    11    4   36 1
    12    5    6 1
    13    5   25 1
    14    5   26 1
    15    6    7 2
    16    6   27 1
    17    7   28 1
    18    7   29 1
    19    8    9 1
    20    8   30 1
    21    8   31 1
    22    9   10 2
    23    9   11 am
    24   11   12 am
    25   11   32 1
    26   12   13 2
    27   12   14 am
    28   14   15 1
    29   14   33 1
    30   15   16 1
    31   15   34 1
    32   15   35 1
    33   16   17 1
    34   16   18 1
    35   16   19 1
@<TRIPOS>MOLECULE
ZINC61785330
   49    48     0     0     0
SMALL
USER_CHARGES

@<TRIPOS>ATOM
      1 C1         -0.0187    1.5258    0.0104 C.3       1 <0>        -0.1452
      2 C2          0.0021   -0.0041    0.0020 C.3       1 <0>        -0.1400
      3 C3          0.7182   -0.4975   -1.2568 C.3       1 <0>         0.1423
      4 C4          0.8493   -2.0210   -1.2049 C.3       1 <0>        -0.1365
      5 C5          1.6735   -2.5029   -2.4004 C.3       1 <0>        -0.1552
      6 N1         -0.0549   -0.1139   -2.4405 N.am      1 <0>        -0.6948
      7 C6          0.1070    1.1088   -2.9841 C.2       1 <0>         0.4995
      8 O1          0.8928    1.8914   -2.4932 O.2       1 <0>        -0.5164
      9 C7         -0.6883    1.5034   -4.2018 C.3       1 <0>        -0.0337
     10 N2         -0.3325    2.8730   -4.5963 N.4       1 <0>        -0.3566
     11 C8          1.0732    2.9106   -5.0212 C.3       1 <0>        -0.0684
     12 C9         -1.1918    3.3011   -5.7082 C.3       1 <0>        -0.0338
     13 C10        -0.9118    4.7461   -6.0319 C.2       1 <0>         0.5023
     14 O2         -0.0784    5.3588   -5.3987 O.2       1 <0>        -0.5178
     15 N3         -1.5874    5.3573   -7.0250 N.am      1 <0>        -0.6956
     16 C11        -1.3152    6.7620   -7.3397 C.3       1 <0>         0.1673
     17 C12         0.1531    6.9197   -7.7399 C.3       1 <0>        -0.1678
     18 C13        -2.2102    7.2079   -8.4977 C.3       1 <0>        -0.1616
     19 C14        -1.6041    7.6254   -6.1101 C.3       1 <0>        -0.1683
     20 H1          1.0039    1.9031    0.0027 H         1 <0>         0.0629
     21 H2         -0.5459    1.8868   -0.8726 H         1 <0>         0.0433
     22 H3         -0.5289    1.8773    0.9072 H         1 <0>         0.0542
     23 H4          0.5293   -0.3651    0.8851 H         1 <0>         0.0824
     24 H5         -1.0205   -0.3814    0.0098 H         1 <0>         0.0678
     25 H6          1.7103   -0.0491   -1.3098 H         1 <0>         0.0986
     26 H7          1.3468   -2.3116   -0.2797 H         1 <0>         0.0891
     27 H8         -0.1422   -2.4724   -1.2416 H         1 <0>         0.0730
     28 H9          1.1760   -2.2123   -3.3257 H         1 <0>         0.0501
     29 H10         2.6650   -2.0515   -2.3638 H         1 <0>         0.0581
     30 H11         1.7669   -3.5883   -2.3635 H         1 <0>         0.0643
     31 H12        -0.6834   -0.7398   -2.8331 H         1 <0>         0.4087
     32 H13        -0.4631    0.8195   -5.0201 H         1 <0>         0.1607
     33 H14        -1.7526    1.4565   -3.9715 H         1 <0>         0.1597
     34 H15         1.2146    2.2400   -5.8688 H         1 <0>         0.1149
     35 H16         1.3371    3.9269   -5.3140 H         1 <0>         0.1425
     36 H17         1.7108    2.5929   -4.1962 H         1 <0>         0.1428
     37 H18        -0.9860    2.6860   -6.5842 H         1 <0>         0.1607
     38 H19        -2.2379    3.1888   -5.4230 H         1 <0>         0.1600
     39 H20        -2.2539    4.8672   -7.5314 H         1 <0>         0.4089
     40 H21         0.3590    6.3046   -8.6159 H         1 <0>         0.0587
     41 H22         0.3557    7.9648   -7.9741 H         1 <0>         0.0750
     42 H23         0.7907    6.6020   -6.9149 H         1 <0>         0.0764
     43 H24        -3.2562    7.0956   -8.2126 H         1 <0>         0.0671
     44 H25        -2.0076    8.2530   -8.7319 H         1 <0>         0.0844
     45 H26        -2.0043    6.5928   -9.3737 H         1 <0>         0.0670
     46 H27        -0.9665    7.3077   -5.2851 H         1 <0>         0.0768
     47 H28        -1.4016    8.6705   -6.3442 H         1 <0>         0.0749
     48 H29        -2.6502    7.5131   -5.8249 H         1 <0>         0.0587
     49 H30        -0.4635    3.4937   -3.8117 H         1 <0>         0.4384
@<TRIPOS>BOND
     1    1    2 1
     2    1   20 1
     3    1   21 1
     4    1   22 1
     5    2    3 1
     6    2   23 1
     7    2   24 1
     8    3    4 1
     9    3    6 1
    10    3   25 1
    11    4    5 1
    12    4   26 1
    13    4   27 1
    14    5   28 1
    15    5   29 1
    16    5   30 1
    17    6    7 am
    18    6   31 1
    19    7    8 2
    20    7    9 1
    21    9   10 1
    22    9   32 1
    23    9   33 1
    24   10   11 1
    25   10   12 1
    26   10   49 1
    27   11   34 1
    28   11   35 1
    29   11   36 1
    30   12   13 1
    31   12   37 1
    32   12   38 1
    33   13   14 2
    34   13   15 am
    35   15   16 1
    36   15   39 1
    37   16   17 1
    38   16   18 1
    39   16   19 1
    40   17   40 1
    41   17   41 1
    42   17   42 1
    43   18   43 1
    44   18   44 1
    45   18   45 1
    46   19   46 1
    47   19   47 1
    48   19   48 1
@<TRIPOS>MOLECULE
ZINC49974425
   46    45     0     0     0
SMALL
USER_CHARGES

@<TRIPOS>ATOM
      1 C1         -0.0187    1.5258    0.0104 C.3       1 <0>        -0.1533
      2 C2          0.0021   -0.0041    0.0020 C.3       1 <0>        -0.1088
      3 C3          0.7421   -0.5109    1.2415 C.3       1 <0>        -0.1503
      4 C4         -1.4333   -0.5336    0.0129 C.3       1 <0>         0.1170
      5 N1         -2.1054   -0.1483   -1.2305 N.am      1 <0>        -0.7011
      6 C5         -3.3867   -0.5081   -1.4434 C.2       1 <0>         0.4985
      7 O1         -3.9833   -1.1509   -0.6057 O.2       1 <0>        -0.5218
      8 C6         -4.0781   -0.1117   -2.7225 C.3       1 <0>        -0.0320
      9 N2         -5.4562   -0.6202   -2.7120 N.4       1 <0>        -0.3571
     10 C7         -6.2136    0.0398   -1.6402 C.3       1 <0>        -0.0687
     11 C8         -6.0919   -0.3383   -4.0060 C.3       1 <0>        -0.0336
     12 C9         -7.4613   -0.9665   -4.0403 C.2       1 <0>         0.5021
     13 O2         -7.8677   -1.5879   -3.0813 O.2       1 <0>        -0.5179
     14 N3         -8.2345   -0.8378   -5.1368 N.am      1 <0>        -0.6955
     15 C10        -9.5657   -1.4485   -5.1702 C.3       1 <0>         0.1672
     16 C11       -10.4221   -0.8668   -4.0437 C.3       1 <0>        -0.1678
     17 C12       -10.2278   -1.1549   -6.5179 C.3       1 <0>        -0.1616
     18 C13        -9.4374   -2.9617   -4.9839 C.3       1 <0>        -0.1684
     19 H1          1.0039    1.9031    0.0027 H         1 <0>         0.0663
     20 H2         -0.5459    1.8868   -0.8726 H         1 <0>         0.0504
     21 H3         -0.5289    1.8773    0.9072 H         1 <0>         0.0611
     22 H4          0.5123   -0.3556   -0.8948 H         1 <0>         0.0805
     23 H5          0.2319   -0.1594    2.1383 H         1 <0>         0.0619
     24 H6          0.7568   -1.6008    1.2356 H         1 <0>         0.0615
     25 H7          1.7647   -0.1336    1.2338 H         1 <0>         0.0679
     26 H8         -1.4190   -1.6203    0.0965 H         1 <0>         0.0807
     27 H9         -1.9701   -0.1109    0.8621 H         1 <0>         0.0811
     28 H10        -1.6283    0.3658   -1.9006 H         1 <0>         0.4103
     29 H11        -4.0923    0.9749   -2.8061 H         1 <0>         0.1615
     30 H12        -3.5412   -0.5345   -3.5717 H         1 <0>         0.1611
     31 H13        -7.2361   -0.3375   -1.6325 H         1 <0>         0.1430
     32 H14        -5.7418   -0.1694   -0.6801 H         1 <0>         0.1419
     33 H15        -6.2246    1.1160   -1.8128 H         1 <0>         0.1157
     34 H16        -6.1833    0.7397   -4.1387 H         1 <0>         0.1610
     35 H17        -5.4818   -0.7528   -4.8085 H         1 <0>         0.1605
     36 H18        -7.9095   -0.3409   -5.9038 H         1 <0>         0.4090
     37 H19       -10.5135    0.2113   -4.1764 H         1 <0>         0.0588
     38 H20       -11.4126   -1.3211   -4.0685 H         1 <0>         0.0750
     39 H21        -9.9504   -1.0759   -3.0836 H         1 <0>         0.0764
     40 H22        -9.6177   -1.5694   -7.3204 H         1 <0>         0.0671
     41 H23       -11.2183   -1.6093   -6.5427 H         1 <0>         0.0844
     42 H24       -10.3192   -0.0769   -6.6506 H         1 <0>         0.0670
     43 H25        -8.9657   -3.1709   -4.0237 H         1 <0>         0.0768
     44 H26       -10.4279   -3.4161   -5.0087 H         1 <0>         0.0749
     45 H27        -8.8273   -3.3762   -5.7864 H         1 <0>         0.0587
     46 H28        -5.4459   -1.6164   -2.5523 H         1 <0>         0.4387
@<TRIPOS>BOND
     1    1    2 1
     2    1   19 1
     3    1   20 1
     4    1   21 1
     5    2    3 1
     6    2    4 1
     7    2   22 1
     8    3   23 1
     9    3   24 1
    10    3   25 1
    11    4    5 1
    12    4   26 1
    13    4   27 1
    14    5    6 am
    15    5   28 1
    16    6    7 2
    17    6    8 1
    18    8    9 1
    19    8   29 1
    20    8   30 1
    21    9   10 1
    22    9   11 1
    23    9   46 1
    24   10   31 1
    25   10   32 1
    26   10   33 1
    27   11   12 1
    28   11   34 1
    29   11   35 1
    30   12   13 2
    31   12   14 am
    32   14   15 1
    33   14   36 1
    34   15   16 1
    35   15   17 1
    36   15   18 1
    37   16   37 1
    38   16   38 1
    39   16   39 1
    40   17   40 1
    41   17   41 1
    42   17   42 1
    43   18   43 1
    44   18   44 1
    45   18   45 1
@<TRIPOS>MOLECULE
ZINC36269359
   44    45     0     0     0
SMALL
USER_CHARGES

@<TRIPOS>ATOM
      1 C1         -0.8841   -4.0886   -3.7035 C.3       1 <0>        -0.1601
      2 C2         -1.2779   -3.9482   -2.2317 C.3       1 <0>         0.1115
      3 N1         -1.0865   -2.5598   -1.8053 N.pl3     1 <0>        -1.1226
      4 S1         -1.7805   -2.0216   -0.4013 S.o2      1 <0>         2.6930
      5 O1         -1.3860   -0.6652   -0.2472 O.2       1 <0>        -0.9640
      6 O2         -3.1443   -2.4182   -0.4445 O.2       1 <0>        -0.9487
      7 C3         -1.0378   -2.9157    0.9230 C.ar      1 <0>        -0.7417
      8 C4         -1.8024   -3.7660    1.6976 C.ar      1 <0>         0.0218
      9 C5         -1.2205   -4.4676    2.7373 C.ar      1 <0>        -0.1826
     10 C6          0.1285   -4.3210    3.0051 C.ar      1 <0>        -0.0169
     11 C7          0.8988   -3.4729    2.2343 C.ar      1 <0>        -0.2117
     12 C8          0.3184   -2.7704    1.1855 C.ar      1 <0>         0.3008
     13 N2          1.0957   -1.9157    0.4006 N.pl3     1 <0>        -0.7490
     14 C9          2.4952   -1.6665    0.7545 C.3       1 <0>         0.1284
     15 C10         3.1138   -0.7022   -0.2596 C.3       1 <0>        -0.1694
     16 C11         4.5755   -0.4418    0.1101 C.3       1 <0>         0.0011
     17 N3          5.1694    0.4840   -0.8636 N.4       1 <0>        -0.4796
     18 C12         6.5728    0.7340   -0.5087 C.3       1 <0>        -0.0852
     19 C13         6.9608    2.1635   -0.1256 C.3       1 <0>        -0.1541
     20 C14         7.4040    1.5850   -1.4708 C.3       1 <0>        -0.1539
     21 H1         -1.0266   -5.1216   -4.0208 H         1 <0>         0.0768
     22 H2         -1.5081   -3.4327   -4.3107 H         1 <0>         0.0666
     23 H3          0.1627   -3.8114   -3.8276 H         1 <0>         0.0584
     24 H4         -2.3247   -4.2253   -2.1076 H         1 <0>         0.0847
     25 H5         -0.6539   -4.6041   -1.6246 H         1 <0>         0.0663
     26 H6         -0.5532   -1.9557   -2.3453 H         1 <0>         0.4127
     27 H7         -2.8560   -3.8828    1.4912 H         1 <0>         0.1465
     28 H8         -1.8208   -5.1313    3.3419 H         1 <0>         0.1355
     29 H9          0.5798   -4.8701    3.8182 H         1 <0>         0.1341
     30 H10         1.9520   -3.3586    2.4442 H         1 <0>         0.1285
     31 H11         0.7088   -1.4872   -0.3789 H         1 <0>         0.3990
     32 H12         2.5454   -1.2273    1.7509 H         1 <0>         0.0779
     33 H13         3.0458   -2.6072    0.7439 H         1 <0>         0.0773
     34 H14         3.0636   -1.1413   -1.2559 H         1 <0>         0.0964
     35 H15         2.5633    0.2385   -0.2490 H         1 <0>         0.0998
     36 H16         4.6256   -0.0027    1.1064 H         1 <0>         0.1375
     37 H17         5.1260   -1.3825    0.0995 H         1 <0>         0.1366
     38 H18         5.1229    0.0775   -1.7859 H         1 <0>         0.4295
     39 H19         7.0792   -0.0810    0.0083 H         1 <0>         0.1784
     40 H20         6.1747    2.9186   -0.1369 H         1 <0>         0.1219
     41 H21         7.7226    2.2892    0.6438 H         1 <0>         0.1344
     42 H22         8.4574    1.3301   -1.5865 H         1 <0>         0.1347
     43 H23         6.9095    1.9594   -2.3672 H         1 <0>         0.1217
     44 H24         4.6597    1.3548   -0.8538 H         1 <0>         0.4275
@<TRIPOS>BOND
     1    1    2 1
     2    1   21 1
     3    1   22 1
     4    1   23 1
     5    2    3 1
     6    2   24 1
     7    2   25 1
     8    3    4 1
     9    3   26 1
    10    4    5 2
    11    4    6 2
    12    4    7 1
    13    7   12 ar
    14    7    8 ar
    15    8    9 ar
    16    8   27 1
    17    9   10 ar
    18    9   28 1
    19   10   11 ar
    20   10   29 1
    21   11   12 ar
    22   11   30 1
    23   12   13 1
    24   13   14 1
    25   13   31 1
    26   14   15 1
    27   14   32 1
    28   14   33 1
    29   15   16 1
    30   15   34 1
    31   15   35 1
    32   16   17 1
    33   16   36 1
    34   16   37 1
    35   17   18 1
    36   17   38 1
    37   17   44 1
    38   18   20 1
    39   18   19 1
    40   18   39 1
    41   19   20 1
    42   19   40 1
    43   19   41 1
    44   20   42 1
    45   20   43 1
@<TRIPOS>MOLECULE
ZINC40826344
   46    47     0     0     0
SMALL
USER_CHARGES

@<TRIPOS>ATOM
      1 C1         -0.0187    1.5258    0.0104 C.3       1 <0>        -0.1829
      2 C2          0.0021   -0.0041    0.0020 C.3       1 <0>         0.0823
      3 C3          0.7421   -0.5109    1.2415 C.3       1 <0>        -0.1920
      4 C4          1.0151    0.4948    2.3618 C.3       1 <0>        -0.1385
      5 C5          2.1630    0.0056    1.4764 C.3       1 <0>        -0.1736
      6 C6         -1.4117   -0.5257    0.0127 C.2       1 <0>         0.5037
      7 O1         -1.9390   -0.8271    1.0625 O.2       1 <0>        -0.4657
      8 N1         -2.0902   -0.6573   -1.1443 N.am      1 <0>        -0.7265
      9 C7         -3.4646   -1.1643   -1.1339 C.3       1 <0>         0.1165
     10 C8         -4.0003   -1.2152   -2.5662 C.3       1 <0>        -0.1321
     11 C9         -5.4357   -1.7448   -2.5553 C.3       1 <0>         0.0632
     12 O2         -5.9360   -1.7923   -3.8930 O.3       1 <0>        -0.3802
     13 C10        -7.2770   -2.2755   -3.9952 C.3       1 <0>         0.0654
     14 C11        -7.7057   -2.2833   -5.4639 C.3       1 <0>         0.0824
     15 H1         -6.9913   -2.8479   -6.0630 H         1 <0>         0.0794
     16 C12        -9.1247   -2.8891   -5.6067 C.3       1 <0>        -0.1510
     17 C13        -9.5931   -2.2329   -6.9341 C.3       1 <0>        -0.1561
     18 C14        -8.9217   -0.8443   -6.8680 C.3       1 <0>         0.0470
     19 O3         -7.8181   -0.9390   -5.9576 O.3       1 <0>        -0.3741
     20 N2          0.6897   -0.4778   -1.2066 N.4       1 <0>        -0.6316
     21 H2          1.0039    1.9031    0.0027 H         1 <0>         0.1010
     22 H3         -0.5459    1.8868   -0.8726 H         1 <0>         0.0914
     23 H4         -0.5289    1.8773    0.9072 H         1 <0>         0.1196
     24 H5          0.5264   -1.5397    1.5299 H         1 <0>         0.1383
     25 H6          0.6675    1.5175    2.2157 H         1 <0>         0.1141
     26 H7          0.9789    0.1278    3.3875 H         1 <0>         0.1176
     27 H8          2.8820   -0.6834    1.9197 H         1 <0>         0.1194
     28 H9          2.5706    0.7064    0.7479 H         1 <0>         0.1044
     29 H10        -1.6686   -0.4162   -1.9840 H         1 <0>         0.3937
     30 H11        -3.4790   -2.1662   -0.7048 H         1 <0>         0.0843
     31 H12        -4.0912   -0.5035   -0.5349 H         1 <0>         0.0848
     32 H13        -3.9859   -0.2133   -2.9953 H         1 <0>         0.0832
     33 H14        -3.3738   -1.8760   -3.1652 H         1 <0>         0.0805
     34 H15        -5.4501   -2.7467   -2.1262 H         1 <0>         0.0547
     35 H16        -6.0623   -1.0839   -1.9563 H         1 <0>         0.0560
     36 H17        -7.3296   -3.2884   -3.5960 H         1 <0>         0.0657
     37 H18        -7.9417   -1.6257   -3.4261 H         1 <0>         0.0602
     38 H19        -9.0811   -3.9743   -5.6989 H         1 <0>         0.0888
     39 H20        -9.7639   -2.5927   -4.7750 H         1 <0>         0.0824
     40 H21        -9.2329   -2.7974   -7.7942 H         1 <0>         0.0802
     41 H22       -10.6787   -2.1381   -6.9580 H         1 <0>         0.0871
     42 H23        -8.5605   -0.5608   -7.8565 H         1 <0>         0.0713
     43 H24        -9.6368   -0.1046   -6.5081 H         1 <0>         0.0717
     44 H25         1.6363   -0.1286   -1.2138 H         1 <0>         0.4419
     45 H26         0.7033   -1.4867   -1.2121 H         1 <0>         0.4412
     46 H27         0.2017   -0.1436   -2.0240 H         1 <0>         0.4310
@<TRIPOS>BOND
     1    1    2 1
     2    1   21 1
     3    1   22 1
     4    1   23 1
     5    2    3 1
     6    2    6 1
     7    2   20 1
     8    3    5 1
     9    3    4 1
    10    3   24 1
    11    4    5 1
    12    4   25 1
    13    4   26 1
    14    5   27 1
    15    5   28 1
    16    6    7 2
    17    6    8 am
    18    8    9 1
    19    8   29 1
    20    9   10 1
    21    9   30 1
    22    9   31 1
    23   10   11 1
    24   10   32 1
    25   10   33 1
    26   11   12 1
    27   11   34 1
    28   11   35 1
    29   12   13 1
    30   13   14 1
    31   13   36 1
    32   13   37 1
    33   14   15 1
    34   14   19 1
    35   14   16 1
    36   16   17 1
    37   16   38 1
    38   16   39 1
    39   17   18 1
    40   17   40 1
    41   17   41 1
    42   18   19 1
    43   18   42 1
    44   18   43 1
    45   20   44 1
    46   20   45 1
    47   20   46 1
@<TRIPOS>MOLECULE
ZINC45475902
   51    51     0     0     0
SMALL
USER_CHARGES

@<TRIPOS>ATOM
      1 C1         -0.0187    1.5258    0.0104 C.3       1 <0>        -0.1575
      2 C2          0.0021   -0.0041    0.0020 C.3       1 <0>        -0.1470
      3 C3          0.7421   -0.5109    1.2415 C.3       1 <0>        -0.0269
      4 N1          0.7620   -1.9797    1.2335 N.4       1 <0>        -0.5038
      5 C4          1.4725   -2.4664    2.4236 C.3       1 <0>         0.0408
      6 C5          2.9079   -1.9368    2.4127 C.3       1 <0>        -0.1711
      7 C6          1.4932   -3.9962    2.4152 C.3       1 <0>        -0.1340
      8 C7          2.2332   -4.5030    3.6547 C.3       1 <0>        -0.1201
      9 C8          2.2540   -6.0329    3.6463 C.3       1 <0>        -0.1173
     10 C9          2.9940   -6.5397    4.8858 C.3       1 <0>         0.0596
     11 O1          3.0133   -7.9686    4.8779 O.3       1 <0>        -0.3790
     12 C10         3.6847   -8.5469    5.9991 C.3       1 <0>         0.0540
     13 C11         3.6439  -10.0722    5.8866 C.3       1 <0>         0.0821
     14 H1          2.6132  -10.4068    5.7691 H         1 <0>         0.0887
     15 C12         4.2597  -10.7073    7.1519 C.3       1 <0>        -0.1501
     16 C13         5.0512  -11.9082    6.5661 C.3       1 <0>        -0.1567
     17 C14         5.5156  -11.3208    5.2096 C.3       1 <0>         0.0453
     18 O2          4.4240  -10.4976    4.7631 O.3       1 <0>        -0.3702
     19 C15         0.7671   -1.9804    3.6635 C.2       1 <0>         0.5126
     20 O3          1.4081   -1.6886    4.6508 O.2       1 <0>        -0.4727
     21 N2         -0.5761   -1.8699    3.6751 N.am      1 <0>        -0.8512
     22 H2          1.0039    1.9031    0.0027 H         1 <0>         0.0686
     23 H3         -0.5459    1.8868   -0.8726 H         1 <0>         0.0804
     24 H4         -0.5289    1.8773    0.9072 H         1 <0>         0.0672
     25 H5         -1.0205   -0.3814    0.0098 H         1 <0>         0.0875
     26 H6          0.5123   -0.3556   -0.8948 H         1 <0>         0.0903
     27 H7          1.7647   -0.1336    1.2338 H         1 <0>         0.1414
     28 H8          0.2319   -0.1594    2.1383 H         1 <0>         0.1308
     29 H9         -0.1846   -2.3290    1.2406 H         1 <0>         0.4224
     30 H10         2.8931   -0.8469    2.4187 H         1 <0>         0.0881
     31 H11         3.4350   -2.2979    3.2958 H         1 <0>         0.1208
     32 H12         3.4181   -2.2883    1.5159 H         1 <0>         0.0963
     33 H13         0.4706   -4.3735    2.4229 H         1 <0>         0.0950
     34 H14         2.0034   -4.3477    1.5184 H         1 <0>         0.1081
     35 H15         3.2558   -4.1258    3.6470 H         1 <0>         0.0845
     36 H16         1.7230   -4.1515    4.5515 H         1 <0>         0.0780
     37 H17         1.2314   -6.4102    3.6540 H         1 <0>         0.0751
     38 H18         2.7642   -6.3844    2.7495 H         1 <0>         0.0786
     39 H19         4.0166   -6.1624    4.8781 H         1 <0>         0.0504
     40 H20         2.4838   -6.1882    5.7826 H         1 <0>         0.0487
     41 H21         4.7216   -8.2113    6.0144 H         1 <0>         0.0550
     42 H22         3.1888   -8.2370    6.9189 H         1 <0>         0.0605
     43 H23         4.9300  -10.0071    7.6504 H         1 <0>         0.0799
     44 H24         3.4804  -11.0510    7.8320 H         1 <0>         0.0884
     45 H25         5.9033  -12.1622    7.1966 H         1 <0>         0.0876
     46 H26         4.4027  -12.7718    6.4188 H         1 <0>         0.0822
     47 H27         6.4137  -10.7182    5.3458 H         1 <0>         0.0608
     48 H28         5.7016  -12.1219    4.4942 H         1 <0>         0.0888
     49 H29        -1.0888   -2.1033    2.8854 H         1 <0>         0.3958
     50 H30        -1.0301   -1.5571    4.4731 H         1 <0>         0.4266
     51 H31         1.2343   -2.3051    0.4033 H         1 <0>         0.4368
@<TRIPOS>BOND
     1    1    2 1
     2    1   22 1
     3    1   23 1
     4    1   24 1
     5    2    3 1
     6    2   25 1
     7    2   26 1
     8    3    4 1
     9    3   27 1
    10    3   28 1
    11    4    5 1
    12    4   29 1
    13    4   51 1
    14    5    6 1
    15    5    7 1
    16    5   19 1
    17    6   30 1
    18    6   31 1
    19    6   32 1
    20    7    8 1
    21    7   33 1
    22    7   34 1
    23    8    9 1
    24    8   35 1
    25    8   36 1
    26    9   10 1
    27    9   37 1
    28    9   38 1
    29   10   11 1
    30   10   39 1
    31   10   40 1
    32   11   12 1
    33   12   13 1
    34   12   41 1
    35   12   42 1
    36   13   14 1
    37   13   18 1
    38   13   15 1
    39   15   16 1
    40   15   43 1
    41   15   44 1
    42   16   17 1
    43   16   45 1
    44   16   46 1
    45   17   18 1
    46   17   47 1
    47   17   48 1
    48   19   20 2
    49   19   21 am
    50   21   49 1
    51   21   50 1
@<TRIPOS>MOLECULE
ZINC03151867
   52    52     0     0     0
SMALL
USER_CHARGES

@<TRIPOS>ATOM
      1 C1         -0.8158    1.3705   -0.8615 C.3       1 <0>        -0.1403
      2 C2         -0.7456   -0.1574   -0.8200 C.3       1 <0>        -0.0291
      3 C3         -0.1173   -0.6033    0.5018 C.3       1 <0>        -0.1404
      4 C4         -2.1573   -0.7361   -0.9345 C.3       1 <0>        -0.1484
      5 C5          0.0951   -0.6529   -1.9684 C.ar      1 <0>        -0.0936
      6 C6         -0.4577   -1.4953   -2.9152 C.ar      1 <0>        -0.0789
      7 C7          0.3110   -1.9514   -3.9686 C.ar      1 <0>        -0.1405
      8 C8          1.6385   -1.5630   -4.0761 C.ar      1 <0>         0.1116
      9 C9          2.1906   -0.7174   -3.1250 C.ar      1 <0>        -0.2052
     10 C10         1.4163   -0.2600   -2.0764 C.ar      1 <0>        -0.0759
     11 O1          2.3969   -2.0107   -5.1112 O.3       1 <0>        -0.3028
     12 C11         3.7554   -1.5699   -5.1582 C.3       1 <0>         0.0308
     13 C12         4.4449   -2.1726   -6.3839 C.3       1 <0>         0.0874
     14 H1          3.8761   -1.9238   -7.2798 H         1 <0>         0.1327
     15 C13         5.8601   -1.6037   -6.5040 C.3       1 <0>        -0.0487
     16 N1          6.5204   -2.1784   -7.6837 N.4       1 <0>        -0.3756
     17 C14         5.8340   -1.7224   -8.8998 C.3       1 <0>        -0.0134
     18 C15         6.4418   -2.4178  -10.1197 C.3       1 <0>         0.0471
     19 O2          6.1853   -3.8216  -10.0446 O.3       1 <0>        -0.5736
     20 C16         7.9229   -1.7431   -7.7206 C.3       1 <0>        -0.0125
     21 C17         8.6743   -2.3420   -6.5299 C.3       1 <0>         0.0456
     22 O3          8.6900   -3.7663   -6.6441 O.3       1 <0>        -0.5759
     23 O4          4.5130   -3.5929   -6.2419 O.3       1 <0>        -0.5380
     24 H2          0.1899    1.7827   -0.7799 H         1 <0>         0.0553
     25 H3         -1.2635    1.6882   -1.8032 H         1 <0>         0.0569
     26 H4         -1.4239    1.7289   -0.0309 H         1 <0>         0.0623
     27 H5         -0.7253   -0.2449    1.3323 H         1 <0>         0.0623
     28 H6         -0.0673   -1.6918    0.5313 H         1 <0>         0.0570
     29 H7          0.8885   -0.1911    0.5833 H         1 <0>         0.0553
     30 H8         -2.6050   -0.4183   -1.8762 H         1 <0>         0.0598
     31 H9         -2.1073   -1.8245   -0.9050 H         1 <0>         0.0599
     32 H10        -2.7654   -0.3776   -0.1039 H         1 <0>         0.0626
     33 H11        -1.4912   -1.7973   -2.8311 H         1 <0>         0.1383
     34 H12        -0.1211   -2.6099   -4.7075 H         1 <0>         0.1324
     35 H13         3.2239   -0.4137   -3.2065 H         1 <0>         0.1222
     36 H14         1.8444    0.4019   -1.3381 H         1 <0>         0.1263
     37 H15         3.7824   -0.4823   -5.2242 H         1 <0>         0.0803
     38 H16         4.2733   -1.8921   -4.2549 H         1 <0>         0.0754
     39 H17         5.8084   -0.5199   -6.6086 H         1 <0>         0.1440
     40 H18         6.4302   -1.8557   -5.6098 H         1 <0>         0.1372
     41 H19         4.7741   -1.9675   -8.8324 H         1 <0>         0.1404
     42 H20         5.9517   -0.6435   -9.0005 H         1 <0>         0.1432
     43 H21         5.9942   -2.0147  -11.0281 H         1 <0>         0.0956
     44 H22         7.5179   -2.2455  -10.1374 H         1 <0>         0.0703
     45 H23         6.5429   -4.3270  -10.7874 H         1 <0>         0.4080
     46 H24         8.3841   -2.0813   -8.6485 H         1 <0>         0.1405
     47 H25         7.9672   -0.6553   -7.6682 H         1 <0>         0.1434
     48 H26         9.6977   -1.9670   -6.5202 H         1 <0>         0.0963
     49 H27         8.1742   -2.0572   -5.6042 H         1 <0>         0.0691
     50 H28         9.1510   -4.2138   -5.9214 H         1 <0>         0.4088
     51 H29         4.9399   -3.8865   -5.4254 H         1 <0>         0.3895
     52 H30         6.4820   -3.1854   -7.6334 H         1 <0>         0.4448
@<TRIPOS>BOND
     1    1    2 1
     2    1   24 1
     3    1   25 1
     4    1   26 1
     5    2    3 1
     6    2    4 1
     7    2    5 1
     8    3   27 1
     9    3   28 1
    10    3   29 1
    11    4   30 1
    12    4   31 1
    13    4   32 1
    14    5   10 ar
    15    5    6 ar
    16    6    7 ar
    17    6   33 1
    18    7    8 ar
    19    7   34 1
    20    8    9 ar
    21    8   11 1
    22    9   10 ar
    23    9   35 1
    24   10   36 1
    25   11   12 1
    26   12   13 1
    27   12   37 1
    28   12   38 1
    29   13   14 1
    30   13   15 1
    31   13   23 1
    32   15   16 1
    33   15   39 1
    34   15   40 1
    35   16   17 1
    36   16   20 1
    37   16   52 1
    38   17   18 1
    39   17   41 1
    40   17   42 1
    41   18   19 1
    42   18   43 1
    43   18   44 1
    44   19   45 1
    45   20   21 1
    46   20   46 1
    47   20   47 1
    48   21   22 1
    49   21   48 1
    50   21   49 1
    51   22   50 1
    52   23   51 1
@<TRIPOS>MOLECULE
ZINC63153333
   45    45     0     0     0
SMALL
USER_CHARGES

@<TRIPOS>ATOM
      1 C1          1.8385   -1.5621   -2.4237 C.3       1 <0>        -0.1537
      2 C2          1.2316   -2.8791   -1.9357 C.3       1 <0>         0.0524
      3 O1         -0.1527   -2.6848   -1.6391 O.3       1 <0>        -0.3845
      4 C3         -0.8178   -3.8604   -1.1727 C.3       1 <0>         0.0746
      5 C4         -2.2859   -3.5368   -0.8881 C.3       1 <0>        -0.6573
      6 S1         -3.1302   -5.0292   -0.2960 S.o2      1 <0>         2.6015
      7 O2         -3.2679   -5.9664   -1.3552 O.2       1 <0>        -0.9149
      8 O3         -2.5968   -5.4278    0.9593 O.2       1 <0>        -0.9221
      9 N1         -4.6763   -4.5391    0.0383 N.pl3     1 <0>        -1.1282
     10 C5         -5.5488   -4.0780   -1.0445 C.3       1 <0>         0.1254
     11 H1         -4.9881   -4.0570   -1.9790 H         1 <0>         0.1172
     12 C6         -6.0593   -2.6716   -0.7243 C.3       1 <0>        -0.0268
     13 N2         -4.9170   -1.7730   -0.5104 N.4       1 <0>        -0.6439
     14 C7         -6.7366   -5.0322   -1.1838 C.3       1 <0>        -0.0917
     15 C8         -7.6478   -4.5507   -2.3146 C.3       1 <0>        -0.1214
     16 C9         -8.8356   -5.5050   -2.4538 C.3       1 <0>        -0.1205
     17 C10        -8.3252   -6.9113   -2.7740 C.3       1 <0>        -0.1257
     18 C11        -7.4140   -7.3929   -1.6432 C.3       1 <0>        -0.1226
     19 C12        -6.2262   -6.4386   -1.5040 C.3       1 <0>        -0.1137
     20 H2          2.8944   -1.7104   -2.6499 H         1 <0>         0.0802
     21 H3          1.3171   -1.2328   -3.3224 H         1 <0>         0.0645
     22 H4          1.7363   -0.8049   -1.6463 H         1 <0>         0.0643
     23 H5          1.3338   -3.6363   -2.7131 H         1 <0>         0.0583
     24 H6          1.7530   -3.2085   -1.0369 H         1 <0>         0.0582
     25 H7         -0.7581   -4.6379   -1.9342 H         1 <0>         0.0731
     26 H8         -0.3389   -4.2101   -0.2581 H         1 <0>         0.0736
     27 H9         -2.3455   -2.7592   -0.1266 H         1 <0>         0.1340
     28 H10        -2.7647   -3.1871   -1.8027 H         1 <0>         0.1356
     29 H11        -5.0042   -4.5573    0.9510 H         1 <0>         0.4302
     30 H12        -6.6594   -2.3046   -1.5569 H         1 <0>         0.1565
     31 H13        -6.6704   -2.7035    0.1777 H         1 <0>         0.1488
     32 H14        -4.3512   -1.7437   -1.3453 H         1 <0>         0.4332
     33 H15        -5.2537   -0.8455   -0.2994 H         1 <0>         0.4455
     34 H16        -7.2973   -5.0532   -0.2493 H         1 <0>         0.0913
     35 H17        -8.0115   -3.5488   -2.0864 H         1 <0>         0.0636
     36 H18        -7.0871   -4.5297   -3.2490 H         1 <0>         0.0725
     37 H19        -9.3963   -5.5260   -1.5193 H         1 <0>         0.0655
     38 H20        -9.4848   -5.1619   -3.2594 H         1 <0>         0.0695
     39 H21        -9.1714   -7.5911   -2.8732 H         1 <0>         0.0677
     40 H22        -7.7645   -6.8903   -3.7085 H         1 <0>         0.0651
     41 H23        -7.9747   -7.4139   -0.7087 H         1 <0>         0.0634
     42 H24        -7.0503   -8.3948   -1.8713 H         1 <0>         0.0699
     43 H25        -5.6655   -6.4176   -2.4384 H         1 <0>         0.0766
     44 H26        -5.5770   -6.7817   -0.6984 H         1 <0>         0.0666
     45 H27        -4.3617   -2.1127    0.2605 H         1 <0>         0.4284
@<TRIPOS>BOND
     1    1    2 1
     2    1   20 1
     3    1   21 1
     4    1   22 1
     5    2    3 1
     6    2   23 1
     7    2   24 1
     8    3    4 1
     9    4    5 1
    10    4   25 1
    11    4   26 1
    12    5    6 1
    13    5   27 1
    14    5   28 1
    15    6    7 2
    16    6    8 2
    17    6    9 1
    18    9   10 1
    19    9   29 1
    20   10   11 1
    21   10   12 1
    22   10   14 1
    23   12   13 1
    24   12   30 1
    25   12   31 1
    26   13   32 1
    27   13   33 1
    28   13   45 1
    29   14   19 1
    30   14   15 1
    31   14   34 1
    32   15   16 1
    33   15   35 1
    34   15   36 1
    35   16   17 1
    36   16   37 1
    37   16   38 1
    38   17   18 1
    39   17   39 1
    40   17   40 1
    41   18   19 1
    42   18   41 1
    43   18   42 1
    44   19   43 1
    45   19   44 1
@<TRIPOS>MOLECULE
ZINC37949357
   38    38     0     0     0
SMALL
USER_CHARGES

@<TRIPOS>ATOM
      1 C1          0.1748    1.5566    0.1031 C.3       1 <0>        -0.1897
      2 C2          0.1300    0.0279    0.0584 C.3       1 <0>        -0.0135
      3 N1          0.8194   -0.4471   -1.1488 N.4       1 <0>        -0.5093
      4 C3          0.7764   -1.9148   -1.1917 C.3       1 <0>         0.0320
      5 H1          1.1909   -2.3176   -0.2676 H         1 <0>         0.1499
      6 C4         -0.6736   -2.3783   -1.3449 C.3       1 <0>        -0.1895
      7 C5          1.5998   -2.4146   -2.3805 C.3       1 <0>        -0.1007
      8 H2          2.6329   -2.0844   -2.2713 H         1 <0>         0.0937
      9 C6          1.0180   -1.8491   -3.6776 C.3       1 <0>        -0.1794
     10 C7          1.5551   -3.9433   -2.4252 C.3       1 <0>        -0.0932
     11 C8          2.4637   -4.4406   -3.5198 C.ar      1 <0>         0.0071
     12 C9          1.9294   -4.8622   -4.7228 C.ar      1 <0>        -0.1556
     13 C10         2.7644   -5.3191   -5.7281 C.ar      1 <0>         0.1681
     14 C11         4.1341   -5.3530   -5.5272 C.ar      1 <0>        -0.1504
     15 C12         4.6659   -4.9310   -4.3237 C.ar      1 <0>        -0.0161
     16 C13         3.8314   -4.4696   -3.3224 C.ar      1 <0>        -0.0666
     17 N2          4.4028   -4.0117   -2.0361 N.pl3     1 <0>         0.0408
     18 O1          5.6019   -3.9448   -1.8970 O.2       1 <0>        -0.1420
     19 O2          3.6704   -3.7046   -1.1246 O.3       1 <0>        -0.1729
     20 F1          2.2433   -5.7319   -6.9043 F         1 <0>        -0.1116
     21 H3          1.2126    1.8892    0.1227 H         1 <0>         0.0809
     22 H4         -0.3196    1.9606   -0.7803 H         1 <0>         0.0793
     23 H5         -0.3367    1.9090    0.9988 H         1 <0>         0.1078
     24 H6          0.6244   -0.3761    0.9418 H         1 <0>         0.1335
     25 H7         -0.9078   -0.3048    0.0387 H         1 <0>         0.1326
     26 H8          0.3617   -0.0731   -1.9666 H         1 <0>         0.4229
     27 H9         -0.7055   -3.4674   -1.3768 H         1 <0>         0.1085
     28 H10        -1.2603   -2.0223   -0.4980 H         1 <0>         0.0849
     29 H11        -1.0881   -1.9755   -2.2690 H         1 <0>         0.0844
     30 H12        -0.0150   -2.1793   -3.7868 H         1 <0>         0.0811
     31 H13         1.0499   -0.7601   -3.6458 H         1 <0>         0.0568
     32 H14         1.6046   -2.2052   -4.5245 H         1 <0>         0.0805
     33 H15         1.8865   -4.3446   -1.4675 H         1 <0>         0.1230
     34 H16         0.5346   -4.2712   -2.6231 H         1 <0>         0.0976
     35 H17         0.8610   -4.8357   -4.8783 H         1 <0>         0.1617
     36 H18         4.7864   -5.7095   -6.3106 H         1 <0>         0.1665
     37 H19         5.7341   -4.9577   -4.1666 H         1 <0>         0.1687
     38 H20         1.7801   -0.1391   -1.1306 H         1 <0>         0.4282
@<TRIPOS>BOND
     1    1    2 1
     2    1   21 1
     3    1   22 1
     4    1   23 1
     5    2    3 1
     6    2   24 1
     7    2   25 1
     8    3    4 1
     9    3   26 1
    10    3   38 1
    11    4    5 1
    12    4    6 1
    13    4    7 1
    14    6   27 1
    15    6   28 1
    16    6   29 1
    17    7    8 1
    18    7    9 1
    19    7   10 1
    20    9   30 1
    21    9   31 1
    22    9   32 1
    23   10   11 1
    24   10   33 1
    25   10   34 1
    26   11   16 ar
    27   11   12 ar
    28   12   13 ar
    29   12   35 1
    30   13   14 ar
    31   13   20 1
    32   14   15 ar
    33   14   36 1
    34   15   16 ar
    35   15   37 1
    36   16   17 1
    37   17   18 2
    38   17   19 1
@<TRIPOS>MOLECULE
ZINC48625557
   46    47     0     0     0
SMALL
USER_CHARGES

@<TRIPOS>ATOM
      1 C1         -0.3153    0.9340    0.6198 C.3       1 <0>        -0.1562
      2 C2         -0.2171   -0.5657    0.3330 C.3       1 <0>        -0.1508
      3 C3          0.5729   -0.7874   -0.9583 C.3       1 <0>        -0.0156
      4 N1          0.6672   -2.2272   -1.2336 N.4       1 <0>        -0.5108
      5 C4          1.4257   -2.4401   -2.4735 C.3       1 <0>         0.1044
      6 H1          0.9664   -1.8720   -3.2825 H         1 <0>         0.1533
      7 C5          1.4179   -3.9063   -2.8217 C.ar      1 <0>        -0.2153
      8 C6          1.3730   -4.8543   -1.8172 C.ar      1 <0>        -0.0425
      9 C7          1.3657   -6.1991   -2.1332 C.ar      1 <0>        -0.2267
     10 C8          1.4036   -6.6014   -3.4610 C.ar      1 <0>         0.2004
     11 C9          1.4487   -5.6525   -4.4704 C.ar      1 <0>        -0.2351
     12 C10         1.4502   -4.3032   -4.1509 C.ar      1 <0>         0.2023
     13 O1          1.4883   -3.3705   -5.1384 O.3       1 <0>        -0.3122
     14 C11         1.5201   -3.8511   -6.4838 C.3       1 <0>         0.0192
     15 O2          1.3969   -7.9245   -3.7713 O.3       1 <0>        -0.3054
     16 C12         1.3499   -8.8463   -2.6804 C.3       1 <0>         0.0210
     17 C13         2.8684   -1.9705   -2.2757 C.3       1 <0>        -0.1436
     18 H2          2.8946   -0.9030   -2.0569 H         1 <0>         0.1108
     19 C14         3.7182   -2.2874   -3.5303 C.3       1 <0>        -0.1472
     20 C15         5.0541   -2.7643   -2.9056 C.3       1 <0>         0.0448
     21 O3          4.6353   -3.5023   -1.7375 O.3       1 <0>        -0.3585
     22 C16         3.5455   -2.7696   -1.1454 C.3       1 <0>         0.0396
     23 H3          0.6864    1.3490    0.7310 H         1 <0>         0.0673
     24 H4         -0.8242    1.4295   -0.2070 H         1 <0>         0.0677
     25 H5         -0.8782    1.0919    1.5398 H         1 <0>         0.0781
     26 H6          0.2917   -1.0612    1.1599 H         1 <0>         0.0862
     27 H7         -1.2189   -0.9807    0.2219 H         1 <0>         0.0875
     28 H8          0.0641   -0.2919   -1.7851 H         1 <0>         0.1353
     29 H9          1.5747   -0.3724   -0.8471 H         1 <0>         0.1326
     30 H10         1.1382   -2.6859   -0.4682 H         1 <0>         0.4197
     31 H11         1.3438   -4.5432   -0.7833 H         1 <0>         0.1251
     32 H12         1.3309   -6.9381   -1.3463 H         1 <0>         0.1430
     33 H13         1.4782   -5.9635   -5.5043 H         1 <0>         0.1501
     34 H14         2.4073   -4.4674   -6.6287 H         1 <0>         0.0666
     35 H15         0.6282   -4.4468   -6.6780 H         1 <0>         0.0664
     36 H16         1.5489   -3.0055   -7.1711 H         1 <0>         0.1124
     37 H17         2.2217   -8.6995   -2.0428 H         1 <0>         0.0641
     38 H18         0.4428   -8.6769   -2.1003 H         1 <0>         0.0629
     39 H19         1.3495   -9.8658   -3.0661 H         1 <0>         0.1118
     40 H20         3.2597   -3.0809   -4.1204 H         1 <0>         0.0999
     41 H21         3.8687   -1.3927   -4.1343 H         1 <0>         0.0941
     42 H22         5.5913   -3.4131   -3.5974 H         1 <0>         0.1026
     43 H23         5.6704   -1.9116   -2.6204 H         1 <0>         0.0700
     44 H24         3.9251   -2.0871   -0.3850 H         1 <0>         0.0744
     45 H25         2.8304   -3.4619   -0.7011 H         1 <0>         0.0746
     46 H26        -0.2602   -2.6114   -1.3365 H         1 <0>         0.4318
@<TRIPOS>BOND
     1    1    2 1
     2    1   23 1
     3    1   24 1
     4    1   25 1
     5    2    3 1
     6    2   26 1
     7    2   27 1
     8    3    4 1
     9    3   28 1
    10    3   29 1
    11    4    5 1
    12    4   30 1
    13    4   46 1
    14    5    6 1
    15    5    7 1
    16    5   17 1
    17    7   12 ar
    18    7    8 ar
    19    8    9 ar
    20    8   31 1
    21    9   10 ar
    22    9   32 1
    23   10   11 ar
    24   10   15 1
    25   11   12 ar
    26   11   33 1
    27   12   13 1
    28   13   14 1
    29   14   34 1
    30   14   35 1
    31   14   36 1
    32   15   16 1
    33   16   37 1
    34   16   38 1
    35   16   39 1
    36   17   18 1
    37   17   22 1
    38   17   19 1
    39   19   20 1
    40   19   40 1
    41   19   41 1
    42   20   21 1
    43   20   42 1
    44   20   43 1
    45   21   22 1
    46   22   44 1
    47   22   45 1
@<TRIPOS>MOLECULE
ZINC51525507
   46    48     0     0     0
SMALL
USER_CHARGES

@<TRIPOS>ATOM
      1 C1         -0.0187    1.5258    0.0104 C.3       1 <0>        -0.1558
      2 C2          0.0021   -0.0041    0.0020 C.3       1 <0>        -0.1197
      3 C3          0.7182   -0.4975   -1.2568 C.3       1 <0>        -0.0847
      4 H1          1.7103   -0.0491   -1.3098 H         1 <0>         0.0851
      5 C4         -0.0892   -0.0968   -2.4931 C.3       1 <0>        -0.1135
      6 C5          0.6269   -0.5903   -3.7519 C.3       1 <0>        -0.1270
      7 C6          0.7579   -2.1137   -3.7000 C.3       1 <0>        -0.1156
      8 C7          1.5654   -2.5144   -2.4637 C.3       1 <0>        -0.1357
      9 C8          0.8493   -2.0210   -1.2049 C.3       1 <0>         0.0906
     10 H2         -0.1428   -2.4694   -1.1520 H         1 <0>         0.0946
     11 O1          1.6034   -2.3952   -0.0503 O.3       1 <0>        -0.2783
     12 C9          1.3181   -3.5983    0.5086 C.ar      1 <0>         0.3040
     13 C10         2.0095   -4.0256    1.6394 C.ar      1 <0>        -0.1280
     14 C11         1.6808   -5.2626    2.1724 C.ar      1 <0>        -0.0629
     15 C12         0.6842   -5.9979    1.5468 C.ar      1 <0>        -0.0540
     16 N1          0.0813   -5.5149    0.4788 N.ar      1 <0>        -0.1700
     17 N2          0.3778   -4.3682   -0.0155 N.ar      1 <0>        -0.2870
     18 C13         0.2914   -7.3485    2.0881 C.3       1 <0>         0.0757
     19 N3         -0.8651   -7.2005    2.9816 N.4       1 <0>        -0.4789
     20 C14        -1.2479   -8.5170    3.5092 C.3       1 <0>        -0.0843
     21 C15        -2.6296   -9.0548    3.1316 C.3       1 <0>        -0.1530
     22 C16        -2.3635   -8.5616    4.5553 C.3       1 <0>        -0.1540
     23 H3          1.0039    1.9031    0.0027 H         1 <0>         0.0570
     24 H4         -0.5459    1.8868   -0.8726 H         1 <0>         0.0602
     25 H5         -0.5289    1.8773    0.9072 H         1 <0>         0.0564
     26 H6          0.5293   -0.3651    0.8851 H         1 <0>         0.0627
     27 H7         -1.0205   -0.3814    0.0098 H         1 <0>         0.0604
     28 H8         -1.0813   -0.5452   -2.4401 H         1 <0>         0.0668
     29 H9         -0.1826    0.9885   -2.5300 H         1 <0>         0.0794
     30 H10         0.0517   -0.3048   -4.6326 H         1 <0>         0.0715
     31 H11         1.6190   -0.1418   -3.8049 H         1 <0>         0.0670
     32 H12        -0.2341   -2.5622   -3.6470 H         1 <0>         0.0671
     33 H13         1.2681   -2.4653   -4.5968 H         1 <0>         0.0726
     34 H14         1.6587   -3.5998   -2.4268 H         1 <0>         0.0663
     35 H15         2.5575   -2.0660   -2.5167 H         1 <0>         0.0744
     36 H16         2.7779   -3.4128    2.0870 H         1 <0>         0.1710
     37 H17         2.1858   -5.6427    3.0482 H         1 <0>         0.1668
     38 H18         0.0298   -8.0091    1.2615 H         1 <0>         0.1513
     39 H19         1.1272   -7.7745    2.6431 H         1 <0>         0.1499
     40 H20        -0.6229   -6.5890    3.7468 H         1 <0>         0.4274
     41 H21        -0.4365   -9.2380    3.6076 H         1 <0>         0.1809
     42 H22        -3.2546   -8.4318    2.4918 H         1 <0>         0.1223
     43 H23        -2.7274  -10.1299    2.9815 H         1 <0>         0.1351
     44 H24        -2.2862   -9.3124    5.3418 H         1 <0>         0.1353
     45 H25        -2.8134   -7.6142    4.8521 H         1 <0>         0.1207
     46 H26        -1.6388   -6.8061    2.4679 H         1 <0>         0.4298
@<TRIPOS>BOND
     1    1    2 1
     2    1   23 1
     3    1   24 1
     4    1   25 1
     5    2    3 1
     6    2   26 1
     7    2   27 1
     8    3    4 1
     9    3    9 1
    10    3    5 1
    11    5    6 1
    12    5   28 1
    13    5   29 1
    14    6    7 1
    15    6   30 1
    16    6   31 1
    17    7    8 1
    18    7   32 1
    19    7   33 1
    20    8    9 1
    21    8   34 1
    22    8   35 1
    23    9   10 1
    24    9   11 1
    25   11   12 1
    26   12   17 ar
    27   12   13 ar
    28   13   14 ar
    29   13   36 1
    30   14   15 ar
    31   14   37 1
    32   15   16 ar
    33   15   18 1
    34   16   17 ar
    35   18   19 1
    36   18   38 1
    37   18   39 1
    38   19   20 1
    39   19   40 1
    40   19   46 1
    41   20   22 1
    42   20   21 1
    43   20   41 1
    44   21   22 1
    45   21   42 1
    46   21   43 1
    47   22   44 1
    48   22   45 1
@<TRIPOS>MOLECULE
ZINC54557482
   46    46     0     0     0
SMALL
USER_CHARGES

@<TRIPOS>ATOM
      1 C1         -0.0876    0.9532    0.8038 C.3       1 <0>        -0.1561
      2 C2         -0.2458   -0.5594    0.6367 C.3       1 <0>        -0.0898
      3 C3          0.2101   -1.2642    1.9158 C.3       1 <0>        -0.1560
      4 C4         -1.7147   -0.8919    0.3670 C.3       1 <0>        -0.0943
      5 C5         -1.8729   -2.4045    0.1999 C.3       1 <0>        -0.1328
      6 C6         -3.3417   -2.7369   -0.0698 C.3       1 <0>        -0.1309
      7 C7         -3.7976   -2.0321   -1.3490 C.3       1 <0>         0.0823
      8 C8         -3.6395   -0.5195   -1.1819 C.3       1 <0>        -0.1368
      9 C9         -2.1706   -0.1870   -0.9122 C.3       1 <0>        -0.1307
     10 C10        -5.2444   -2.3596   -1.6146 C.2       1 <0>         0.4446
     11 O1         -5.9658   -2.6916   -0.7040 O.2       1 <0>        -0.4400
     12 O2         -5.7318   -2.2824   -2.8630 O.3       1 <0>        -0.3605
     13 C11        -7.1119   -2.6068   -3.0418 C.3       1 <0>         0.0297
     14 N1         -2.9769   -2.4884   -2.4786 N.4       1 <0>        -0.4994
     15 C12        -3.1257   -3.9413   -2.6366 C.3       1 <0>        -0.0115
     16 C13        -2.3766   -4.3974   -3.8903 C.3       1 <0>         0.0317
     17 O3         -0.9756   -4.1778   -3.7144 O.3       1 <0>        -0.4026
     18 C14        -0.1803   -4.5721   -4.8342 C.3       1 <0>         0.0296
     19 H1          0.9588    1.1901    0.9959 H         1 <0>         0.0616
     20 H2         -0.4124    1.4554   -0.1075 H         1 <0>         0.0571
     21 H3         -0.6966    1.2918    1.6420 H         1 <0>         0.0591
     22 H4          0.3632   -0.8980   -0.2015 H         1 <0>         0.0722
     23 H5         -0.3989   -0.9256    2.7540 H         1 <0>         0.0591
     24 H6          0.0974   -2.3418    1.7968 H         1 <0>         0.0574
     25 H7          1.2565   -1.0274    2.1080 H         1 <0>         0.0615
     26 H8         -2.3237   -0.5533    1.2052 H         1 <0>         0.0911
     27 H9         -1.2639   -2.7431   -0.6383 H         1 <0>         0.0659
     28 H10        -1.5481   -2.9066    1.1112 H         1 <0>         0.1052
     29 H11        -3.4544   -3.8145   -0.1889 H         1 <0>         0.0963
     30 H12        -3.9507   -2.3983    0.7684 H         1 <0>         0.1252
     31 H13        -3.9643   -0.0173   -2.0932 H         1 <0>         0.1018
     32 H14        -4.2485   -0.1809   -0.3437 H         1 <0>         0.1212
     33 H15        -2.0579    0.8906   -0.7932 H         1 <0>         0.1059
     34 H16        -1.5616   -0.5256   -1.7504 H         1 <0>         0.0640
     35 H17        -7.3759   -2.5041   -4.0944 H         1 <0>         0.1195
     36 H18        -7.2882   -3.6337   -2.7216 H         1 <0>         0.0733
     37 H19        -7.7244   -1.9302   -2.4459 H         1 <0>         0.0756
     38 H20        -3.2793   -2.0256   -3.3227 H         1 <0>         0.4331
     39 H21        -2.7130   -4.4459   -1.7631 H         1 <0>         0.1466
     40 H22        -4.1825   -4.1898   -2.7343 H         1 <0>         0.1394
     41 H23        -2.5599   -5.4588   -4.0571 H         1 <0>         0.1023
     42 H24        -2.7283   -3.8283   -4.7509 H         1 <0>         0.0792
     43 H25        -0.3180   -5.6372   -5.0206 H         1 <0>         0.0562
     44 H26        -0.4865   -4.0067   -5.7144 H         1 <0>         0.0532
     45 H27         0.8702   -4.3732   -4.6219 H         1 <0>         0.1014
     46 H28        -2.0085   -2.2668   -2.3020 H         1 <0>         0.4394
@<TRIPOS>BOND
     1    1    2 1
     2    1   19 1
     3    1   20 1
     4    1   21 1
     5    2    3 1
     6    2    4 1
     7    2   22 1
     8    3   23 1
     9    3   24 1
    10    3   25 1
    11    4    9 1
    12    4    5 1
    13    4   26 1
    14    5    6 1
    15    5   27 1
    16    5   28 1
    17    6    7 1
    18    6   29 1
    19    6   30 1
    20    7    8 1
    21    7   10 1
    22    7   14 1
    23    8    9 1
    24    8   31 1
    25    8   32 1
    26    9   33 1
    27    9   34 1
    28   10   11 2
    29   10   12 1
    30   12   13 1
    31   13   35 1
    32   13   36 1
    33   13   37 1
    34   14   15 1
    35   14   38 1
    36   14   46 1
    37   15   16 1
    38   15   39 1
    39   15   40 1
    40   16   17 1
    41   16   41 1
    42   16   42 1
    43   17   18 1
    44   18   43 1
    45   18   44 1
    46   18   45 1
@<TRIPOS>MOLECULE
ZINC62799897
   41    43     0     0     0
SMALL
USER_CHARGES

@<TRIPOS>ATOM
      1 C1          1.7059   -2.1241    2.4002 C.3       1 <0>        -0.1567
      2 C2          0.8510   -1.7927    1.1753 C.3       1 <0>        -0.1510
      3 C3          1.5589   -2.2845   -0.0888 C.3       1 <0>        -0.0126
      4 N1          0.7381   -1.9663   -1.2649 N.4       1 <0>        -0.5066
      5 C4          1.4706   -2.3285   -2.4856 C.3       1 <0>         0.0816
      6 H1          2.4629   -1.8776   -2.4784 H         1 <0>         0.1546
      7 C5          1.5805   -3.8631   -2.6088 C.3       1 <0>        -0.1335
      8 C6          1.4913   -4.0800   -4.1343 C.3       1 <0>        -0.0773
      9 C7          0.7116   -2.8931   -4.6581 C.ar      1 <0>        -0.0964
     10 C8          0.7008   -1.8846   -3.7112 C.ar      1 <0>        -0.1273
     11 C9          0.0435   -0.6945   -3.9754 C.ar      1 <0>        -0.1312
     12 C10        -0.6022   -0.5070   -5.1825 C.ar      1 <0>        -0.0667
     13 C11        -0.5942   -1.5091   -6.1329 C.ar      1 <0>        -0.1781
     14 C12         0.0610   -2.7076   -5.8717 C.ar      1 <0>         0.1527
     15 O1          0.0714   -3.6954   -6.8050 O.3       1 <0>        -0.3009
     16 C13        -0.6173   -3.4375   -8.0303 C.3       1 <0>         0.1316
     17 C14        -0.4983   -4.6365   -8.9354 C.2       1 <0>         0.0512
     18 C15        -1.3525   -5.6766   -8.9879 C.2       1 <0>        -0.2450
     19 C16        -0.8839   -6.5788   -9.9598 C.2       1 <0>         0.0783
     20 N2          0.2124   -6.0917  -10.4684 N.2       1 <0>        -0.2965
     21 O2          0.4739   -4.8526   -9.8345 O.3       1 <0>        -0.0719
     22 H2          1.8507   -3.2027    2.4611 H         1 <0>         0.0675
     23 H3          2.6743   -1.6319    2.3113 H         1 <0>         0.0674
     24 H4          1.2016   -1.7737    3.3007 H         1 <0>         0.0777
     25 H5         -0.1175   -2.2849    1.2642 H         1 <0>         0.0864
     26 H6          0.7062   -0.7141    1.1143 H         1 <0>         0.0863
     27 H7          2.5274   -1.7923   -0.1777 H         1 <0>         0.1326
     28 H8          1.7037   -3.3631   -0.0278 H         1 <0>         0.1332
     29 H9         -0.1250   -2.4872   -1.2235 H         1 <0>         0.4282
     30 H10         2.5370   -4.2153   -2.2226 H         1 <0>         0.1107
     31 H11         0.7513   -4.3532   -2.0986 H         1 <0>         0.0959
     32 H12         2.4891   -4.1002   -4.5725 H         1 <0>         0.0995
     33 H13         0.9619   -5.0072   -4.3542 H         1 <0>         0.0973
     34 H14         0.0353    0.0907   -3.2340 H         1 <0>         0.1280
     35 H15        -1.1134    0.4231   -5.3827 H         1 <0>         0.1434
     36 H16        -1.0986   -1.3637   -7.0768 H         1 <0>         0.1444
     37 H17        -1.6693   -3.2426   -7.8217 H         1 <0>         0.1065
     38 H18        -0.1767   -2.5684   -8.5187 H         1 <0>         0.0963
     39 H19        -2.2423   -5.7970   -8.3879 H         1 <0>         0.1656
     40 H20        -1.3510   -7.5125  -10.2361 H         1 <0>         0.2078
     41 H21         0.5345   -0.9781   -1.2755 H         1 <0>         0.4268
@<TRIPOS>BOND
     1    1    2 1
     2    1   22 1
     3    1   23 1
     4    1   24 1
     5    2    3 1
     6    2   25 1
     7    2   26 1
     8    3    4 1
     9    3   27 1
    10    3   28 1
    11    4    5 1
    12    4   29 1
    13    4   41 1
    14    5    6 1
    15    5   10 1
    16    5    7 1
    17    7    8 1
    18    7   30 1
    19    7   31 1
    20    8    9 1
    21    8   32 1
    22    8   33 1
    23    9   14 ar
    24    9   10 ar
    25   10   11 ar
    26   11   12 ar
    27   11   34 1
    28   12   13 ar
    29   12   35 1
    30   13   14 ar
    31   13   36 1
    32   14   15 1
    33   15   16 1
    34   16   17 1
    35   16   37 1
    36   16   38 1
    37   17   21 1
    38   17   18 2
    39   18   19 1
    40   18   39 1
    41   19   20 2
    42   19   40 1
    43   20   21 1
@<TRIPOS>MOLECULE
ZINC40479390
   34    35     0     0     0
SMALL
USER_CHARGES

@<TRIPOS>ATOM
      1 C1         -0.0167    1.3929    0.0318 C.ar      1 <0>        -0.0741
      2 C2          1.0815    1.9627   -0.5780 C.ar      1 <0>        -0.1042
      3 C3          2.2914    1.2916   -0.6017 C.ar      1 <0>        -0.0620
      4 C4          2.4086    0.0375   -0.0102 C.ar      1 <0>         0.1093
      5 C5          1.3123   -0.5434    0.6046 C.ar      1 <0>        -0.0776
      6 C6          0.0906    0.1339    0.6287 C.ar      1 <0>        -0.1043
      7 C7         -1.0817   -0.4776    1.2819 C.2       1 <0>         0.5185
      8 O1         -2.1502    0.1172    1.3018 O.co2     1 <0>        -0.6719
      9 O2         -0.9855   -1.5795    1.8037 O.co2     1 <0>        -0.6793
     10 N1          3.6351   -0.6373   -0.0370 N.am      1 <0>        -0.6371
     11 C8          3.6671   -1.9813    0.0572 C.2       1 <0>         0.4866
     12 O3          2.6320   -2.6135    0.0643 O.2       1 <0>        -0.4941
     13 C9          4.9888   -2.6987    0.1538 C.3       1 <0>        -0.0255
     14 N2          4.7548   -4.1461    0.2457 N.4       1 <0>        -0.4942
     15 C10         6.0433   -4.8454    0.3398 C.3       1 <0>         0.0296
     16 C11         5.7996   -6.3528    0.4356 C.3       1 <0>        -0.2148
     17 C12         6.2390   -7.0593    1.7196 C.3       1 <0>        -0.1667
     18 C13         7.0251   -7.2687    0.4238 C.3       1 <0>        -0.1499
     19 Cl1         3.6676    2.0164   -1.3727 Cl        1 <0>        -0.0801
     20 H1         -0.9582    1.9216    0.0518 H         1 <0>         0.1451
     21 H2          0.9967    2.9357   -1.0389 H         1 <0>         0.1379
     22 H3          1.4013   -1.5168    1.0640 H         1 <0>         0.1578
     23 H4          4.4619   -0.1373   -0.1234 H         1 <0>         0.4150
     24 H5          5.5851   -2.4827   -0.7327 H         1 <0>         0.1622
     25 H6          5.5222   -2.3598    1.0419 H         1 <0>         0.1635
     26 H7          4.2029   -4.3461    1.0663 H         1 <0>         0.4396
     27 H8          6.6396   -4.6293   -0.5467 H         1 <0>         0.1354
     28 H9          6.5766   -4.5064    1.2279 H         1 <0>         0.1330
     29 H10         4.8959   -6.7150   -0.0546 H         1 <0>         0.1294
     30 H11         6.7016   -6.4502    2.4961 H         1 <0>         0.1067
     31 H12         5.6242   -7.8865    2.0745 H         1 <0>         0.1106
     32 H13         6.9276   -8.2336   -0.0737 H         1 <0>         0.1114
     33 H14         8.0050   -6.7973    0.3479 H         1 <0>         0.1070
     34 H15         4.2611   -4.4598   -0.5764 H         1 <0>         0.4369
@<TRIPOS>BOND
     1    1    6 ar
     2    1    2 ar
     3    1   20 1
     4    2    3 ar
     5    2   21 1
     6    3    4 ar
     7    3   19 1
     8    4    5 ar
     9    4   10 1
    10    5    6 ar
    11    5   22 1
    12    6    7 1
    13    7    8 2
    14    7    9 1
    15   10   11 am
    16   10   23 1
    17   11   12 2
    18   11   13 1
    19   13   14 1
    20   13   24 1
    21   13   25 1
    22   14   15 1
    23   14   26 1
    24   14   34 1
    25   15   16 1
    26   15   27 1
    27   15   28 1
    28   16   18 1
    29   16   17 1
    30   16   29 1
    31   17   18 1
    32   17   30 1
    33   17   31 1
    34   18   32 1
    35   18   33 1
@<TRIPOS>MOLECULE
ZINC43413740
   48    48     0     0     0
SMALL
USER_CHARGES

@<TRIPOS>ATOM
      1 C1         -0.2710    1.7778    0.3254 C.3       1 <0>        -0.1762
      2 C2         -0.2557    0.2505    0.4163 C.3       1 <0>        -0.1471
      3 C3         -1.6910   -0.2775    0.3702 C.3       1 <0>         0.0249
      4 H1         -2.2787    0.1988    1.1550 H         1 <0>         0.1412
      5 C4         -1.6844   -1.7921    0.5861 C.3       1 <0>        -0.1866
      6 N1         -2.2833    0.0280   -0.9389 N.4       1 <0>        -0.4930
      7 C5         -3.6970   -0.3712   -0.9419 C.3       1 <0>        -0.0359
      8 C6         -4.3047   -0.0579   -2.2849 C.2       1 <0>         0.4900
      9 O1         -3.6268    0.4482   -3.1540 O.2       1 <0>        -0.5421
     10 N2         -5.6014   -0.3399   -2.5202 N.am      1 <0>        -0.6851
     11 C7         -6.1921   -0.0353   -3.8258 C.3       1 <0>         0.1166
     12 C8         -7.6233   -0.5738   -3.8761 C.3       1 <0>        -0.0385
     13 C9         -8.2221   -0.3022   -5.2577 C.3       1 <0>        -0.1187
     14 C10        -8.2346    1.2050   -5.5208 C.3       1 <0>        -0.1177
     15 C11        -9.0797    1.9021   -4.4527 C.3       1 <0>        -0.1175
     16 C12        -8.4809    1.6305   -3.0711 C.3       1 <0>        -0.1149
     17 C13        -8.4684    0.1233   -2.8080 C.3       1 <0>        -0.1201
     18 C14        -7.6107   -2.0809   -3.6130 C.3       1 <0>        -0.1767
     19 C15        -9.0129   -2.6220   -3.7242 C.2       1 <0>         0.4915
     20 O2         -9.9501   -1.8585   -3.8832 O.co2     1 <0>        -0.6779
     21 O3         -9.2101   -3.8232   -3.6551 O.co2     1 <0>        -0.6994
     22 H2          0.7515    2.1539    0.3582 H         1 <0>         0.0829
     23 H3         -0.7399    2.0813   -0.6106 H         1 <0>         0.0537
     24 H4         -0.8354    2.1860    1.1637 H         1 <0>         0.0718
     25 H5          0.3087   -0.1577   -0.4220 H         1 <0>         0.0892
     26 H6          0.2132   -0.0530    1.3523 H         1 <0>         0.1126
     27 H7         -1.0966   -2.2684   -0.1986 H         1 <0>         0.0836
     28 H8         -1.2449   -2.0188    1.5575 H         1 <0>         0.1073
     29 H9         -2.7069   -2.1683    0.5532 H         1 <0>         0.0837
     30 H10        -2.2132    1.0187   -1.1169 H         1 <0>         0.4316
     31 H11        -3.7728   -1.4414   -0.7496 H         1 <0>         0.1613
     32 H12        -4.2308    0.1762   -0.1650 H         1 <0>         0.1596
     33 H13        -6.1436   -0.7446   -1.8251 H         1 <0>         0.4110
     34 H14        -6.2045    1.0442   -3.9760 H         1 <0>         0.0809
     35 H15        -5.5995   -0.5046   -4.6111 H         1 <0>         0.0732
     36 H16        -7.6200   -0.7989   -6.0186 H         1 <0>         0.0468
     37 H17        -9.2417   -0.6858   -5.2935 H         1 <0>         0.1167
     38 H18        -7.2150    1.5886   -5.4849 H         1 <0>         0.0483
     39 H19        -8.6612    1.3984   -6.5050 H         1 <0>         0.0582
     40 H20        -9.0886    2.9758   -4.6401 H         1 <0>         0.0509
     41 H21       -10.0993    1.5185   -4.4885 H         1 <0>         0.0704
     42 H22        -7.4613    2.0141   -3.0353 H         1 <0>         0.0452
     43 H23        -9.0830    2.1272   -2.3102 H         1 <0>         0.0546
     44 H24        -9.4880   -0.2603   -2.8439 H         1 <0>         0.1179
     45 H25        -8.0418   -0.0701   -1.8238 H         1 <0>         0.0344
     46 H26        -6.9723   -2.5726   -4.3471 H         1 <0>         0.0570
     47 H27        -7.2261   -2.2717   -2.6112 H         1 <0>         0.0482
     48 H28        -1.7892   -0.4788   -1.6581 H         1 <0>         0.4322
@<TRIPOS>BOND
     1    1    2 1
     2    1   22 1
     3    1   23 1
     4    1   24 1
     5    2    3 1
     6    2   25 1
     7    2   26 1
     8    3    4 1
     9    3    5 1
    10    3    6 1
    11    5   27 1
    12    5   28 1
    13    5   29 1
    14    6    7 1
    15    6   30 1
    16    6   48 1
    17    7    8 1
    18    7   31 1
    19    7   32 1
    20    8    9 2
    21    8   10 am
    22   10   11 1
    23   10   33 1
    24   11   12 1
    25   11   34 1
    26   11   35 1
    27   12   17 1
    28   12   13 1
    29   12   18 1
    30   13   14 1
    31   13   36 1
    32   13   37 1
    33   14   15 1
    34   14   38 1
    35   14   39 1
    36   15   16 1
    37   15   40 1
    38   15   41 1
    39   16   17 1
    40   16   42 1
    41   16   43 1
    42   17   44 1
    43   17   45 1
    44   18   19 1
    45   18   46 1
    46   18   47 1
    47   19   20 2
    48   19   21 1
@<TRIPOS>MOLECULE
ZINC44981854
   43    45     0     0     0
SMALL
USER_CHARGES

@<TRIPOS>ATOM
      1 C1         -0.0168    1.3859    0.0097 C.ar      1 <0>        -0.0868
      2 C2          1.1921    2.0638    0.0018 C.ar      1 <0>        -0.2259
      3 C3          2.3766    1.3396   -0.0134 C.ar      1 <0>         0.3887
      4 N1          2.3617    0.0148   -0.0208 N.ar      1 <0>        -0.5605
      5 C4          1.2279   -0.6660   -0.0137 C.ar      1 <0>         0.3052
      6 C5          0.0021   -0.0041    0.0020 C.ar      1 <0>         0.1033
      7 N2         -1.1981   -0.7311    0.0100 N.pl3     1 <0>        -0.8755
      8 O1          1.2588   -2.0234   -0.0217 O.3       1 <0>        -0.3074
      9 C6          2.5464   -2.6430   -0.0378 C.3       1 <0>         0.1094
     10 C7          2.3805   -4.1639   -0.0449 C.3       1 <0>        -0.1608
     11 C8          2.9152   -4.9385    1.1614 C.3       1 <0>        -0.1760
     12 C9          3.6467   -5.0120   -0.1803 C.3       1 <0>        -0.1685
     13 N3          3.5956    2.0141   -0.0215 N.pl3     1 <0>        -0.7323
     14 C10         3.6223    3.4789   -0.0138 C.3       1 <0>         0.1397
     15 C11         5.0738    3.9625   -0.0251 C.3       1 <0>        -0.1342
     16 H1          5.5975    3.5232   -0.8741 H         1 <0>         0.0877
     17 C12         5.1036    5.4897   -0.1399 C.3       1 <0>        -0.1149
     18 C13         6.5573    5.9676   -0.0718 C.3       1 <0>        -0.1562
     19 C14         7.1892    5.4705    1.2310 C.3       1 <0>         0.0572
     20 O2          7.1007    4.0453    1.2883 O.3       1 <0>        -0.3810
     21 C15         5.7635    3.5415    1.2752 C.3       1 <0>         0.0659
     22 H2         -0.9523    1.9254    0.0259 H         1 <0>         0.1379
     23 H3          1.2125    3.1436    0.0070 H         1 <0>         0.1318
     24 H4         -2.0481   -0.2639    0.0210 H         1 <0>         0.3966
     25 H5         -1.1777   -1.7009    0.0046 H         1 <0>         0.4020
     26 H6          3.0879   -2.3324   -0.9313 H         1 <0>         0.0681
     27 H7          3.1053   -2.3425    0.8485 H         1 <0>         0.0656
     28 H8          1.4726   -4.5356   -0.5199 H         1 <0>         0.1144
     29 H9          3.3851   -4.3645    1.9601 H         1 <0>         0.0962
     30 H10         2.3589   -5.8199    1.4803 H         1 <0>         0.0976
     31 H11         3.5718   -5.9419   -0.7441 H         1 <0>         0.1004
     32 H12         4.5979   -4.4864   -0.2644 H         1 <0>         0.0973
     33 H13         4.4266    1.5139   -0.0321 H         1 <0>         0.4019
     34 H14         3.1067    3.8563   -0.8969 H         1 <0>         0.0659
     35 H15         3.1237    3.8467    0.8829 H         1 <0>         0.0636
     36 H16         4.6643    5.7926   -1.0904 H         1 <0>         0.0727
     37 H17         4.5367    5.9282    0.6814 H         1 <0>         0.0683
     38 H18         7.1120    5.5688   -0.9211 H         1 <0>         0.0729
     39 H19         6.5842    7.0570   -0.0971 H         1 <0>         0.0769
     40 H20         8.2363    5.7713    1.2651 H         1 <0>         0.0949
     41 H21         6.6590    5.9020    2.0800 H         1 <0>         0.0512
     42 H22         5.2149    3.9469    2.1254 H         1 <0>         0.0531
     43 H23         5.7832    2.4536    1.3404 H         1 <0>         0.0935
@<TRIPOS>BOND
     1    1    6 ar
     2    1    2 ar
     3    1   22 1
     4    2    3 ar
     5    2   23 1
     6    3    4 ar
     7    3   13 1
     8    4    5 ar
     9    5    6 ar
    10    5    8 1
    11    6    7 1
    12    7   24 1
    13    7   25 1
    14    8    9 1
    15    9   10 1
    16    9   26 1
    17    9   27 1
    18   10   12 1
    19   10   11 1
    20   10   28 1
    21   11   12 1
    22   11   29 1
    23   11   30 1
    24   12   31 1
    25   12   32 1
    26   13   14 1
    27   13   33 1
    28   14   15 1
    29   14   34 1
    30   14   35 1
    31   15   16 1
    32   15   21 1
    33   15   17 1
    34   17   18 1
    35   17   36 1
    36   17   37 1
    37   18   19 1
    38   18   38 1
    39   18   39 1
    40   19   20 1
    41   19   40 1
    42   19   41 1
    43   20   21 1
    44   21   42 1
    45   21   43 1
@<TRIPOS>MOLECULE
ZINC50368905
   42    43     0     0     0
SMALL
USER_CHARGES

@<TRIPOS>ATOM
      1 C1         -0.0187    1.5258    0.0104 C.3       1 <0>        -0.1489
      2 C2          0.0021   -0.0041    0.0020 C.3       1 <0>        -0.1256
      3 C3         -1.4333   -0.5336    0.0129 C.3       1 <0>         0.0764
      4 O1         -1.4139   -1.9625    0.0050 O.3       1 <0>        -0.3114
      5 C4         -2.6152   -2.5953    0.0131 C.ar      1 <0>         0.3036
      6 C5         -2.6613   -3.9878    0.0119 C.ar      1 <0>         0.1023
      7 C6         -3.8971   -4.6243    0.0206 C.ar      1 <0>        -0.0865
      8 C7         -5.0428   -3.8444    0.0304 C.ar      1 <0>        -0.2244
      9 C8         -4.9225   -2.4612    0.0310 C.ar      1 <0>         0.3911
     10 N1         -3.7299   -1.8839    0.0276 N.ar      1 <0>        -0.5605
     11 N2         -6.0697   -1.6707    0.0403 N.pl3     1 <0>        -0.7229
     12 C9         -7.3927   -2.2998    0.0493 C.3       1 <0>         0.1551
     13 H1         -7.3706   -3.2234   -0.5291 H         1 <0>         0.0972
     14 C10        -7.8278   -2.5947    1.4996 C.3       1 <0>        -0.1381
     15 C11        -8.7026   -1.3772    1.8888 C.3       1 <0>        -0.1220
     16 C12        -9.4734   -1.0776    0.5791 C.3       1 <0>        -0.1455
     17 C13        -8.4388   -1.3356   -0.5372 C.3       1 <0>         0.0790
     18 H2         -7.9621   -0.3997   -0.8284 H         1 <0>         0.0702
     19 O2         -9.0761   -1.9336   -1.6678 O.3       1 <0>        -0.3797
     20 C14        -9.5144   -0.9947   -2.6519 C.3       1 <0>         0.0305
     21 N3         -1.4755   -4.7381    0.0014 N.pl3     1 <0>        -0.8759
     22 H3          1.0039    1.9031    0.0027 H         1 <0>         0.0638
     23 H4         -0.5459    1.8868   -0.8726 H         1 <0>         0.0574
     24 H5         -0.5289    1.8773    0.9072 H         1 <0>         0.0575
     25 H6          0.5123   -0.3556   -0.8948 H         1 <0>         0.0711
     26 H7          0.5293   -0.3651    0.8851 H         1 <0>         0.0711
     27 H8         -1.9435   -0.1821    0.9097 H         1 <0>         0.0630
     28 H9         -1.9605   -0.1726   -0.8702 H         1 <0>         0.0628
     29 H10        -3.9630   -5.7023    0.0196 H         1 <0>         0.1380
     30 H11        -6.0184   -4.3075    0.0370 H         1 <0>         0.1338
     31 H12        -5.9924   -0.7037    0.0408 H         1 <0>         0.3994
     32 H13        -8.4121   -3.5138    1.5432 H         1 <0>         0.0783
     33 H14        -6.9576   -2.6634    2.1524 H         1 <0>         0.0763
     34 H15        -9.3921   -1.6378    2.6918 H         1 <0>         0.0724
     35 H16        -8.0797   -0.5291    2.1731 H         1 <0>         0.0683
     36 H17       -10.3235   -1.7517    0.4741 H         1 <0>         0.0818
     37 H18        -9.8041   -0.0391    0.5602 H         1 <0>         0.0700
     38 H19       -10.2323   -0.3075   -2.2042 H         1 <0>         0.0428
     39 H20        -8.6580   -0.4332   -3.0252 H         1 <0>         0.0420
     40 H21        -9.9872   -1.5273   -3.4770 H         1 <0>         0.0881
     41 H22        -0.6166   -4.2875   -0.0050 H         1 <0>         0.4016
     42 H23        -1.5149   -5.7073    0.0006 H         1 <0>         0.3965
@<TRIPOS>BOND
     1    1    2 1
     2    1   22 1
     3    1   23 1
     4    1   24 1
     5    2    3 1
     6    2   25 1
     7    2   26 1
     8    3    4 1
     9    3   27 1
    10    3   28 1
    11    4    5 1
    12    5   10 ar
    13    5    6 ar
    14    6    7 ar
    15    6   21 1
    16    7    8 ar
    17    7   29 1
    18    8    9 ar
    19    8   30 1
    20    9   10 ar
    21    9   11 1
    22   11   12 1
    23   11   31 1
    24   12   13 1
    25   12   17 1
    26   12   14 1
    27   14   15 1
    28   14   32 1
    29   14   33 1
    30   15   16 1
    31   15   34 1
    32   15   35 1
    33   16   17 1
    34   16   36 1
    35   16   37 1
    36   17   18 1
    37   17   19 1
    38   19   20 1
    39   20   38 1
    40   20   39 1
    41   20   40 1
    42   21   41 1
    43   21   42 1
@<TRIPOS>MOLECULE
ZINC67041613
   49    49     0     0     0
SMALL
USER_CHARGES

@<TRIPOS>ATOM
      1 C1         -0.0187    1.5258    0.0104 C.3       1 <0>        -0.1494
      2 C2          0.0021   -0.0041    0.0020 C.3       1 <0>        -0.0974
      3 C3          0.7421   -0.5109    1.2415 C.3       1 <0>        -0.1527
      4 C4         -1.4333   -0.5336    0.0129 C.3       1 <0>        -0.1011
      5 C5         -1.4157   -2.0577   -0.1212 C.3       1 <0>        -0.1322
      6 C6         -2.8295   -2.5793   -0.1105 C.2       1 <0>         0.5139
      7 O1         -3.7596   -1.8080   -0.0059 O.2       1 <0>        -0.5278
      8 N1         -3.0602   -3.9028   -0.2171 N.am      1 <0>        -0.5340
      9 N2         -4.3746   -4.3878   -0.2072 N.am      1 <0>        -0.5343
     10 C7         -4.6054   -5.7113   -0.3138 C.2       1 <0>         0.7119
     11 O2         -5.7461   -6.1322   -0.3052 O.2       1 <0>        -0.5687
     12 N3         -3.5718   -6.5684   -0.4300 N.am      1 <0>        -0.7440
     13 C8         -3.8226   -8.0071   -0.5460 C.3       1 <0>         0.1339
     14 C9         -2.4899   -8.7493   -0.6640 C.3       1 <0>        -0.1322
     15 C10        -2.7519  -10.2518   -0.7851 C.3       1 <0>        -0.1095
     16 C11        -1.4192  -10.9940   -0.9032 C.3       1 <0>        -0.0920
     17 C12        -0.7444  -10.6576   -2.2490 C.3       1 <0>        -0.1210
     18 C13        -0.0832  -11.9885   -2.6856 C.3       1 <0>        -0.1276
     19 C14        -1.1234  -13.0479   -2.2440 C.3       1 <0>        -0.1265
     20 C15        -1.6601  -12.5138   -0.9000 C.3       1 <0>        -0.1230
     21 H1          1.0039    1.9031    0.0027 H         1 <0>         0.0560
     22 H2         -0.5459    1.8868   -0.8726 H         1 <0>         0.0558
     23 H3         -0.5289    1.8773    0.9072 H         1 <0>         0.0560
     24 H4          0.5123   -0.3556   -0.8948 H         1 <0>         0.0715
     25 H5          0.2319   -0.1594    2.1383 H         1 <0>         0.0562
     26 H6          0.7568   -1.6008    1.2356 H         1 <0>         0.0549
     27 H7          1.7647   -0.1336    1.2338 H         1 <0>         0.0559
     28 H8         -1.9156   -0.2570    0.9504 H         1 <0>         0.0732
     29 H9         -1.9862   -0.1019   -0.8214 H         1 <0>         0.0730
     30 H10        -0.9334   -2.3344   -1.0587 H         1 <0>         0.1005
     31 H11        -0.8628   -2.4894    0.7131 H         1 <0>         0.1022
     32 H12        -2.3163   -4.5197   -0.3008 H         1 <0>         0.4185
     33 H13        -5.1185   -3.7709   -0.1236 H         1 <0>         0.4437
     34 H14        -2.6617   -6.2327   -0.4369 H         1 <0>         0.3908
     35 H15        -4.3553   -8.3555    0.3389 H         1 <0>         0.0706
     36 H16        -4.4260   -8.2004   -1.4329 H         1 <0>         0.0706
     37 H17        -1.9572   -8.4009   -1.5489 H         1 <0>         0.0711
     38 H18        -1.8865   -8.5560    0.2229 H         1 <0>         0.0695
     39 H19        -3.2846  -10.6002    0.0997 H         1 <0>         0.0671
     40 H20        -3.3552  -10.4451   -1.6720 H         1 <0>         0.0682
     41 H21        -0.7640  -10.7181   -0.0769 H         1 <0>         0.0715
     42 H22        -1.4886  -10.3433   -2.9808 H         1 <0>         0.0669
     43 H23         0.0104   -9.8829   -2.1142 H         1 <0>         0.0628
     44 H24         0.0585  -12.0133   -3.7660 H         1 <0>         0.0649
     45 H25         0.8639  -12.1376   -2.1671 H         1 <0>         0.0657
     46 H26        -1.9287  -13.1196   -2.9750 H         1 <0>         0.0647
     47 H27        -0.6451  -14.0175   -2.1056 H         1 <0>         0.0637
     48 H28        -1.1212  -12.9755   -0.0727 H         1 <0>         0.0628
     49 H29        -2.7265  -12.7226   -0.8143 H         1 <0>         0.0654
@<TRIPOS>BOND
     1    1    2 1
     2    1   21 1
     3    1   22 1
     4    1   23 1
     5    2    3 1
     6    2    4 1
     7    2   24 1
     8    3   25 1
     9    3   26 1
    10    3   27 1
    11    4    5 1
    12    4   28 1
    13    4   29 1
    14    5    6 1
    15    5   30 1
    16    5   31 1
    17    6    7 2
    18    6    8 am
    19    8    9 1
    20    8   32 1
    21    9   10 am
    22    9   33 1
    23   10   11 2
    24   10   12 am
    25   12   13 1
    26   12   34 1
    27   13   14 1
    28   13   35 1
    29   13   36 1
    30   14   15 1
    31   14   37 1
    32   14   38 1
    33   15   16 1
    34   15   39 1
    35   15   40 1
    36   16   20 1
    37   16   17 1
    38   16   41 1
    39   17   18 1
    40   17   42 1
    41   17   43 1
    42   18   19 1
    43   18   44 1
    44   18   45 1
    45   19   20 1
    46   19   46 1
    47   19   47 1
    48   20   48 1
    49   20   49 1
@<TRIPOS>MOLECULE
ZINC31851635
   34    35     0     0     0
SMALL
USER_CHARGES
methyl 5-[(1S)-1-(4,6-diaminopyrimidin-2-yl)sulfanylethyl]furan-2-carboxylate
@<TRIPOS>ATOM
      1 C1          1.1589   -2.5644   -1.2718 C.3       1 <0>        -0.1562
      2 C2          1.7119   -1.8723   -0.0243 C.3       1 <0>        -0.0076
      3 H1          2.7981   -1.8151   -0.1882 H         1 <0>         0.1364
      4 C3          1.2712   -0.4312   -0.0124 C.2       1 <0>         0.0396
      5 C4          2.0918    0.6428   -0.0145 C.2       1 <0>        -0.1992
      6 C5          1.2773    1.7852   -0.0005 C.2       1 <0>        -0.0994
      7 C6         -0.0162    1.3452    0.0094 C.2       1 <0>        -0.0606
      8 O1          0.0021   -0.0041    0.0020 O.3       1 <0>        -0.1397
      9 C7         -1.2128    2.1898    0.0200 C.2       1 <0>         0.5529
     10 O2         -1.1022    3.4010    0.0255 O.2       1 <0>        -0.4843
     11 O3         -2.4375    1.6243    0.0235 O.3       1 <0>        -0.3466
     12 C8         -3.5783    2.5226    0.0340 C.3       1 <0>         0.0319
     13 S1          1.0872   -2.7065    1.4555 S.3       1 <0>         0.0493
     14 C9          1.8547   -4.2812    1.2660 C.ar      1 <0>         0.3776
     15 N1          2.6260   -4.5004    0.2111 N.ar      1 <0>        -0.6199
     16 C10         3.2263   -5.6757    0.0381 C.ar      1 <0>         0.4818
     17 C11         3.0256   -6.6835    0.9769 C.ar      1 <0>        -0.3812
     18 C12         2.2044   -6.4181    2.0689 C.ar      1 <0>         0.4825
     19 N2          1.6413   -5.2172    2.1793 N.ar      1 <0>        -0.5987
     20 N3          1.9763   -7.3916    3.0290 N.pl3     1 <0>        -0.8594
     21 N4          4.0358   -5.8951   -1.0656 N.pl3     1 <0>        -0.8603
     22 H2          1.4806   -3.6163   -1.2805 H         1 <0>         0.0961
     23 H3          1.5386   -2.0574   -2.1711 H         1 <0>         0.0675
     24 H4          0.0600   -2.5171   -1.2606 H         1 <0>         0.0653
     25 H5          3.1716    0.6250   -0.0249 H         1 <0>         0.1658
     26 H6          1.6086    2.8132    0.0015 H         1 <0>         0.1691
     27 H7         -4.5080    1.9346    0.0358 H         1 <0>         0.1090
     28 H8         -3.5502    3.1614   -0.8611 H         1 <0>         0.0685
     29 H9         -3.5409    3.1523    0.9352 H         1 <0>         0.0690
     30 H10         3.4964   -7.6486    0.8609 H         1 <0>         0.1317
     31 H11         1.3260   -7.1741    3.8891 H         1 <0>         0.4289
     32 H12         2.4456   -8.3816    2.9308 H         1 <0>         0.4320
     33 H13         4.5284   -6.8692   -1.2014 H         1 <0>         0.4321
     34 H14         4.1855   -5.0951   -1.8056 H         1 <0>         0.4265
@<TRIPOS>BOND
     1    1    2 1
     2    1   22 1
     3    1   23 1
     4    1   24 1
     5    2    3 1
     6    2    4 1
     7    2   13 1
     8    4    8 1
     9    4    5 2
    10    5    6 1
    11    5   25 1
    12    6    7 2
    13    6   26 1
    14    7    8 1
    15    7    9 1
    16    9   10 2
    17    9   11 1
    18   11   12 1
    19   12   27 1
    20   12   28 1
    21   12   29 1
    22   13   14 1
    23   14   19 ar
    24   14   15 ar
    25   15   16 ar
    26   16   17 ar
    27   16   21 1
    28   17   18 ar
    29   17   30 1
    30   18   19 ar
    31   18   20 1
    32   20   31 1
    33   20   32 1
    34   21   33 1
    35   21   34 1
@<TRIPOS>MOLECULE
ZINC44786221
   43    43     0     0     0
SMALL
USER_CHARGES

@<TRIPOS>ATOM
      1 C1          0.3186    1.9474   -0.7688 C.3       1 <0>        -0.1647
      2 C2          0.3557    0.4715   -0.3672 C.3       1 <0>        -0.1010
      3 C3          0.7742   -0.3744   -1.5715 C.3       1 <0>        -0.0180
      4 C4          0.8113   -1.8503   -1.1698 C.3       1 <0>        -0.1123
      5 C5         -0.5953   -2.3081   -0.7792 C.3       1 <0>        -0.1539
      6 C6         -0.2184   -0.1828   -2.6891 C.2       1 <0>         0.4013
      7 N1         -1.2953    0.5014   -2.4864 N.2       1 <0>        -0.4175
      8 O1         -2.2279    0.6814   -3.5366 O.3       1 <0>        -0.4290
      9 N2          0.0226   -0.7371   -3.9266 N.pl3     1 <0>        -0.8543
     10 C7          2.1423    0.0545   -2.0356 C.2       1 <0>         0.5310
     11 O2          2.2961    0.4744   -3.1629 O.2       1 <0>        -0.5213
     12 N3          3.1948   -0.0286   -1.1979 N.am      1 <0>        -0.7205
     13 C8          4.5248    0.3884   -1.6491 C.3       1 <0>         0.2331
     14 H1          4.6442    0.1423   -2.7042 H         1 <0>         0.1172
     15 C9          4.6782    1.8985   -1.4571 C.3       1 <0>        -0.1646
     16 C10         5.5765   -0.3299   -0.8435 C.2       1 <0>        -0.0322
     17 C11         6.7306   -0.8278   -1.3227 C.2       1 <0>        -0.1858
     18 C12         7.4093   -1.4134   -0.2294 C.2       1 <0>        -0.2116
     19 C13         6.6294   -1.2382    0.8525 C.2       1 <0>        -0.0055
     20 O3          5.5233   -0.5763    0.4756 O.3       1 <0>        -0.1726
     21 C14         6.9458   -1.7013    2.2513 C.3       1 <0>        -0.0762
     22 H2          1.3081    2.2576   -1.1045 H         1 <0>         0.0446
     23 H3         -0.3993    2.0860   -1.5772 H         1 <0>         0.0844
     24 H4          0.0205    2.5500    0.0891 H         1 <0>         0.0584
     25 H5          1.0736    0.3329    0.4412 H         1 <0>         0.0704
     26 H6         -0.6338    0.1613   -0.0315 H         1 <0>         0.0907
     27 H7          1.1673   -2.4466   -2.0100 H         1 <0>         0.0721
     28 H8          1.4840   -1.9792   -0.3219 H         1 <0>         0.0818
     29 H9         -0.5839   -3.3774   -0.5682 H         1 <0>         0.0626
     30 H10        -0.9203   -1.7660    0.1089 H         1 <0>         0.0649
     31 H11        -1.2839   -2.1070   -1.5999 H         1 <0>         0.0600
     32 H12        -3.0013    1.2068   -3.2900 H         1 <0>         0.3980
     33 H13         0.8114   -1.2836   -4.0680 H         1 <0>         0.3956
     34 H14        -0.5966   -0.5810   -4.6569 H         1 <0>         0.4066
     35 H15         3.0717   -0.3644   -0.2962 H         1 <0>         0.4063
     36 H16         4.5588    2.1446   -0.4020 H         1 <0>         0.0638
     37 H17         5.6678    2.2087   -1.7928 H         1 <0>         0.0735
     38 H18         3.9175    2.4180   -2.0397 H         1 <0>         0.0729
     39 H19         7.0727   -0.7884   -2.3463 H         1 <0>         0.1508
     40 H20         8.3695   -1.9070   -0.2575 H         1 <0>         0.1504
     41 H21         7.4883   -0.9173    2.7796 H         1 <0>         0.0830
     42 H22         6.0181   -1.9208    2.7799 H         1 <0>         0.0773
     43 H23         7.5598   -2.6008    2.2061 H         1 <0>         0.0902
@<TRIPOS>BOND
     1    1    2 1
     2    1   22 1
     3    1   23 1
     4    1   24 1
     5    2    3 1
     6    2   25 1
     7    2   26 1
     8    3    4 1
     9    3    6 1
    10    3   10 1
    11    4    5 1
    12    4   27 1
    13    4   28 1
    14    5   29 1
    15    5   30 1
    16    5   31 1
    17    6    7 2
    18    6    9 1
    19    7    8 1
    20    8   32 1
    21    9   33 1
    22    9   34 1
    23   10   11 2
    24   10   12 am
    25   12   13 1
    26   12   35 1
    27   13   14 1
    28   13   15 1
    29   13   16 1
    30   15   36 1
    31   15   37 1
    32   15   38 1
    33   16   20 1
    34   16   17 2
    35   17   18 1
    36   17   39 1
    37   18   19 2
    38   18   40 1
    39   19   20 1
    40   19   21 1
    41   21   41 1
    42   21   42 1
    43   21   43 1
@<TRIPOS>MOLECULE
ZINC49570803
   40    41     0     0     0
SMALL
USER_CHARGES

@<TRIPOS>ATOM
      1 C1         -0.2954    1.7327    0.7202 C.3       1 <0>        -0.1664
      2 C2         -0.0473    0.2853    0.2910 C.3       1 <0>         0.1516
      3 H1          0.5308    0.2743   -0.6330 H         1 <0>         0.0973
      4 C3         -1.3879   -0.4158    0.0622 C.3       1 <0>        -0.1227
      5 C4         -1.1407   -1.8226   -0.4861 C.3       1 <0>        -0.0428
      6 C5         -2.4611   -2.5131   -0.7115 C.2       1 <0>        -0.0101
      7 C6         -3.1786   -2.4865   -1.8490 C.2       1 <0>        -0.2110
      8 C7         -4.3383   -3.2620   -1.6200 C.2       1 <0>        -0.2130
      9 C8         -4.2602   -3.7161   -0.3562 C.2       1 <0>        -0.0448
     10 O1         -3.1182   -3.2641    0.1873 O.3       1 <0>        -0.1774
     11 N1          0.6968   -0.4147    1.3410 N.pl3     1 <0>        -1.1196
     12 S1          2.2376   -0.9471    1.0495 S.o2      1 <0>         2.6887
     13 O2          2.6973   -1.5406    2.2560 O.2       1 <0>        -0.9603
     14 O3          2.1961   -1.6566   -0.1810 O.2       1 <0>        -0.9514
     15 C9          3.2379    0.4774    0.7760 C.ar      1 <0>        -0.7494
     16 C10         3.8318    0.6792   -0.4546 C.ar      1 <0>         0.0198
     17 C11         4.6174    1.7965   -0.6700 C.ar      1 <0>        -0.1926
     18 C12         4.8109    2.7157    0.3451 C.ar      1 <0>        -0.0191
     19 C13         4.2198    2.5203    1.5776 C.ar      1 <0>        -0.2014
     20 C14         3.4255    1.4015    1.7958 C.ar      1 <0>         0.3165
     21 N2          2.8218    1.2034    3.0396 N.pl3     1 <0>        -0.5880
     22 N3          3.0675    2.0727    4.0643 N.3       1 <0>        -0.5998
     23 H2          0.6596    2.2321    0.8832 H         1 <0>         0.0606
     24 H3         -0.8491    2.2535   -0.0611 H         1 <0>         0.0729
     25 H4         -0.8736    1.7437    1.6442 H         1 <0>         0.0619
     26 H5         -1.9283   -0.4836    1.0063 H         1 <0>         0.0747
     27 H6         -1.9786    0.1549   -0.6545 H         1 <0>         0.0844
     28 H7         -0.6002   -1.7548   -1.4303 H         1 <0>         0.1012
     29 H8         -0.5499   -2.3932    0.2305 H         1 <0>         0.0814
     30 H9         -2.9189   -1.9712   -2.7619 H         1 <0>         0.1478
     31 H10        -5.1344   -3.4529   -2.3244 H         1 <0>         0.1479
     32 H11        -4.9900   -4.3414    0.1365 H         1 <0>         0.2019
     33 H12         0.2870   -0.5663    2.2070 H         1 <0>         0.4159
     34 H13         3.6827   -0.0366   -1.2494 H         1 <0>         0.1432
     35 H14         5.0812    1.9515   -1.6329 H         1 <0>         0.1307
     36 H15         5.4254    3.5872    0.1737 H         1 <0>         0.1310
     37 H16         4.3716    3.2383    2.3699 H         1 <0>         0.1348
     38 H17         2.2280    0.4485    3.1758 H         1 <0>         0.4008
     39 H18         2.8425    3.0193    3.7972 H         1 <0>         0.3396
     40 H19         2.5646    1.8024    4.8962 H         1 <0>         0.3647
@<TRIPOS>BOND
     1    1    2 1
     2    1   23 1
     3    1   24 1
     4    1   25 1
     5    2    3 1
     6    2    4 1
     7    2   11 1
     8    4    5 1
     9    4   26 1
    10    4   27 1
    11    5    6 1
    12    5   28 1
    13    5   29 1
    14    6   10 1
    15    6    7 2
    16    7    8 1
    17    7   30 1
    18    8    9 2
    19    8   31 1
    20    9   10 1
    21    9   32 1
    22   11   12 1
    23   11   33 1
    24   12   13 2
    25   12   14 2
    26   12   15 1
    27   15   20 ar
    28   15   16 ar
    29   16   17 ar
    30   16   34 1
    31   17   18 ar
    32   17   35 1
    33   18   19 ar
    34   18   36 1
    35   19   20 ar
    36   19   37 1
    37   20   21 1
    38   21   22 1
    39   21   38 1
    40   22   39 1
    41   22   40 1
@<TRIPOS>MOLECULE
ZINC59045470
   41    42     0     0     0
SMALL
USER_CHARGES

@<TRIPOS>ATOM
      1 C1         -0.1800    1.6080   -0.2118 C.3       1 <0>        -0.1661
      2 C2         -0.0523    0.0893   -0.0770 C.3       1 <0>         0.1693
      3 C3          0.7227   -0.2461    1.1988 C.3       1 <0>        -0.1661
      4 C4         -1.4471   -0.5354   -0.0056 C.3       1 <0>        -0.1569
      5 N1          0.6634   -0.4454   -1.2380 N.am      1 <0>        -0.7163
      6 C5          1.9196   -0.0353   -1.5029 C.2       1 <0>         0.5394
      7 O1          2.4576    0.7765   -0.7800 O.2       1 <0>        -0.5176
      8 C6          2.6559   -0.5854   -2.6971 C.3       1 <0>        -0.1596
      9 S1          4.3096    0.1553   -2.7818 S.3       1 <0>         0.1104
     10 C7          5.0331   -0.5794   -4.2106 C.2       1 <0>         0.1760
     11 N2          4.4655   -1.4552   -5.0088 N.2       1 <0>        -0.2949
     12 N3          5.2743   -1.7816   -5.9526 N.2       1 <0>        -0.2323
     13 C8          6.4082   -1.1342   -5.8153 C.2       1 <0>         0.1904
     14 N4          6.2868   -0.3401   -4.6983 N.pl3     1 <0>        -0.3033
     15 N5          7.2251    0.5084   -4.1828 N.3       1 <0>        -0.5813
     16 C9          7.5899   -1.2356   -6.6968 C.ar      1 <0>        -0.0556
     17 C10         8.8630   -1.3932   -6.1477 C.ar      1 <0>        -0.0910
     18 C11         9.9623   -1.4872   -6.9757 C.ar      1 <0>        -0.1231
     19 C12         9.8080   -1.4254   -8.3498 C.ar      1 <0>        -0.0827
     20 C13         8.5519   -1.2690   -8.9052 C.ar      1 <0>        -0.1417
     21 C14         7.4373   -1.1798   -8.0875 C.ar      1 <0>         0.1550
     22 O2          6.2018   -1.0326   -8.6325 O.3       1 <0>        -0.4794
     23 H1          0.8137    2.0531   -0.2627 H         1 <0>         0.0791
     24 H2         -0.7322    1.8470   -1.1207 H         1 <0>         0.0553
     25 H3         -0.7126    2.0059    0.6520 H         1 <0>         0.0655
     26 H4          0.1902    0.1518    2.0626 H         1 <0>         0.0655
     27 H5          0.8137   -1.3280    1.2948 H         1 <0>         0.0552
     28 H6          1.7164    0.1990    1.1479 H         1 <0>         0.0790
     29 H7         -1.9993   -0.2964   -0.9145 H         1 <0>         0.0635
     30 H8         -1.3562   -1.6173    0.0904 H         1 <0>         0.0634
     31 H9         -1.9797   -0.1375    0.8582 H         1 <0>         0.0762
     32 H10         0.2332   -1.0947   -1.8162 H         1 <0>         0.4034
     33 H11         2.7469   -1.6673   -2.6012 H         1 <0>         0.1250
     34 H12         2.1038   -0.3464   -3.6061 H         1 <0>         0.1257
     35 H13         7.8663    0.0151   -3.5798 H         1 <0>         0.3673
     36 H14         7.7191    0.9911   -4.9183 H         1 <0>         0.3774
     37 H15         8.9875   -1.4411   -5.0760 H         1 <0>         0.1226
     38 H16        10.9474   -1.6092   -6.5500 H         1 <0>         0.1353
     39 H17        10.6735   -1.4994   -8.9914 H         1 <0>         0.1360
     40 H18         8.4389   -1.2209   -9.9782 H         1 <0>         0.1401
     41 H19         5.9376   -0.1119   -8.7654 H         1 <0>         0.3920
@<TRIPOS>BOND
     1    1    2 1
     2    1   23 1
     3    1   24 1
     4    1   25 1
     5    2    3 1
     6    2    4 1
     7    2    5 1
     8    3   26 1
     9    3   27 1
    10    3   28 1
    11    4   29 1
    12    4   30 1
    13    4   31 1
    14    5    6 am
    15    5   32 1
    16    6    7 2
    17    6    8 1
    18    8    9 1
    19    8   33 1
    20    8   34 1
    21    9   10 1
    22   10   14 1
    23   10   11 2
    24   11   12 1
    25   12   13 2
    26   13   14 1
    27   13   16 1
    28   14   15 1
    29   15   35 1
    30   15   36 1
    31   16   21 ar
    32   16   17 ar
    33   17   18 ar
    34   17   37 1
    35   18   19 ar
    36   18   38 1
    37   19   20 ar
    38   19   39 1
    39   20   21 ar
    40   20   40 1
    41   21   22 1
    42   22   41 1
@<TRIPOS>MOLECULE
ZINC64630096
   50    50     0     0     0
SMALL
USER_CHARGES

@<TRIPOS>ATOM
      1 C1         -0.0187    1.5258    0.0104 C.3       1 <0>        -0.1469
      2 C2          0.0021   -0.0041    0.0020 C.3       1 <0>        -0.1089
      3 C3          0.7421   -0.5109    1.2415 C.3       1 <0>        -0.1512
      4 C4         -1.4333   -0.5336    0.0129 C.3       1 <0>         0.1220
      5 N1         -1.4164   -1.9929   -0.1155 N.am      1 <0>        -0.7243
      6 C5         -2.5748   -2.6816   -0.1296 C.2       1 <0>         0.5083
      7 O1         -3.6313   -2.0933   -0.0360 O.2       1 <0>        -0.5350
      8 C6         -2.5575   -4.1827   -0.2617 C.3       1 <0>         0.1208
      9 N2         -3.9319   -4.6898   -0.2513 N.am      1 <0>        -0.7338
     10 C7         -4.1626   -6.0134   -0.3579 C.2       1 <0>         0.7131
     11 O2         -3.2302   -6.7866   -0.4628 O.2       1 <0>        -0.5920
     12 N3         -5.4271   -6.4799   -0.3483 N.am      1 <0>        -0.7336
     13 C8         -5.6779   -7.9186   -0.4643 C.3       1 <0>         0.1204
     14 C9         -7.1626   -8.1742   -0.4275 C.2       1 <0>         0.5101
     15 O3         -7.9352   -7.2460   -0.3154 O.2       1 <0>        -0.5339
     16 N4         -7.6320   -9.4343   -0.5190 N.am      1 <0>        -0.7223
     17 C10        -9.0753   -9.6827   -0.4833 C.3       1 <0>         0.1450
     18 C11        -9.5417   -9.7710    0.9712 C.3       1 <0>        -0.1296
     19 C12       -11.0491  -10.0305    1.0086 C.3       1 <0>        -0.1179
     20 C13       -11.3578  -11.3473    0.2932 C.3       1 <0>        -0.1231
     21 C14       -10.8914  -11.2590   -1.1613 C.3       1 <0>        -0.1166
     22 C15        -9.3840  -10.9995   -1.1986 C.3       1 <0>        -0.1269
     23 H1          1.0039    1.9031    0.0027 H         1 <0>         0.0622
     24 H2         -0.5459    1.8868   -0.8726 H         1 <0>         0.0588
     25 H3         -0.5289    1.8773    0.9072 H         1 <0>         0.0591
     26 H4          0.5123   -0.3556   -0.8948 H         1 <0>         0.0782
     27 H5          0.2319   -0.1594    2.1383 H         1 <0>         0.0584
     28 H6          0.7568   -1.6008    1.2356 H         1 <0>         0.0548
     29 H7          1.7647   -0.1336    1.2338 H         1 <0>         0.0602
     30 H8         -1.9156   -0.2570    0.9504 H         1 <0>         0.0710
     31 H9         -1.9862   -0.1019   -0.8214 H         1 <0>         0.0706
     32 H10        -0.5715   -2.4635   -0.1904 H         1 <0>         0.4044
     33 H11        -2.0752   -4.4594   -1.1992 H         1 <0>         0.1002
     34 H12        -2.0046   -4.6145    0.5726 H         1 <0>         0.1001
     35 H13        -4.6758   -4.0730   -0.1676 H         1 <0>         0.4103
     36 H14        -6.1710   -5.8630   -0.2647 H         1 <0>         0.4102
     37 H15        -5.2696   -8.2838   -1.4066 H         1 <0>         0.1000
     38 H16        -5.1990   -8.4389    0.3652 H         1 <0>         0.0999
     39 H17        -7.0141  -10.1766   -0.6086 H         1 <0>         0.4038
     40 H18        -9.5970   -8.8666   -0.9832 H         1 <0>         0.0900
     41 H19        -9.0200  -10.5871    1.4712 H         1 <0>         0.0646
     42 H20        -9.3218   -8.8329    1.4809 H         1 <0>         0.0673
     43 H21       -11.3813  -10.0934    2.0448 H         1 <0>         0.0659
     44 H22       -11.5707   -9.2144    0.5087 H         1 <0>         0.0648
     45 H23       -10.8361  -12.1634    0.7932 H         1 <0>         0.0632
     46 H24       -12.4316  -11.5321    0.3199 H         1 <0>         0.0649
     47 H25       -11.1113  -12.1971   -1.6709 H         1 <0>         0.0686
     48 H26       -11.4130  -10.4429   -1.6612 H         1 <0>         0.0656
     49 H27        -9.0517  -10.9366   -2.2348 H         1 <0>         0.0698
     50 H28        -8.8623  -11.8156   -0.6987 H         1 <0>         0.0695
@<TRIPOS>BOND
     1    1    2 1
     2    1   23 1
     3    1   24 1
     4    1   25 1
     5    2    3 1
     6    2    4 1
     7    2   26 1
     8    3   27 1
     9    3   28 1
    10    3   29 1
    11    4    5 1
    12    4   30 1
    13    4   31 1
    14    5    6 am
    15    5   32 1
    16    6    7 2
    17    6    8 1
    18    8    9 1
    19    8   33 1
    20    8   34 1
    21    9   10 am
    22    9   35 1
    23   10   11 2
    24   10   12 am
    25   12   13 1
    26   12   36 1
    27   13   14 1
    28   13   37 1
    29   13   38 1
    30   14   15 2
    31   14   16 am
    32   16   17 1
    33   16   39 1
    34   17   22 1
    35   17   18 1
    36   17   40 1
    37   18   19 1
    38   18   41 1
    39   18   42 1
    40   19   20 1
    41   19   43 1
    42   19   44 1
    43   20   21 1
    44   20   45 1
    45   20   46 1
    46   21   22 1
    47   21   47 1
    48   21   48 1
    49   22   49 1
    50   22   50 1
@<TRIPOS>MOLECULE
ZINC20152147
   41    42     0     0     0
SMALL
USER_CHARGES
3-[(3,5-dimethylbenzoyl)carbamothioylamino]-4-methyl-benzoic acid
@<TRIPOS>ATOM
      1 C1          2.0493    1.7856    1.8937 C.3       1 <0>        -0.1067
      2 C2          0.9661    2.1381    0.9071 C.ar      1 <0>        -0.0954
      3 C3         -0.2236    1.4337    0.9093 C.ar      1 <0>        -0.1356
      4 C4         -1.2177    1.7464    0.0052 C.ar      1 <0>        -0.0656
      5 C5         -1.0285    2.7853   -0.9090 C.ar      1 <0>        -0.1091
      6 C6          0.1720    3.4960   -0.9111 C.ar      1 <0>        -0.0331
      7 C7          1.1666    3.1699   -0.0020 C.ar      1 <0>         0.1001
      8 N1          2.3726    3.8792   -0.0002 N.pl3     1 <0>        -0.6234
      9 C8          2.3637    5.2236   -0.0947 C.2       1 <0>         0.5088
     10 S1          0.8776    6.0733   -0.0756 S.2       1 <0>        -0.4800
     11 N2          3.5249    5.8991   -0.2041 N.am      1 <0>        -0.6548
     12 C9          3.5160    7.2435   -0.2985 C.2       1 <0>         0.5328
     13 O1          2.4611    7.8467   -0.2850 O.2       1 <0>        -0.4031
     14 C10         4.7891    7.9842   -0.4185 C.ar      1 <0>        -0.1183
     15 C11         6.0031    7.2947   -0.4286 C.ar      1 <0>        -0.0986
     16 C12         7.1876    7.9919   -0.5466 C.ar      1 <0>        -0.0874
     17 C13         7.1750    9.3722   -0.6429 C.ar      1 <0>        -0.0969
     18 C14         5.9757   10.0620   -0.6278 C.ar      1 <0>        -0.0850
     19 C15         4.7836    9.3768   -0.5165 C.ar      1 <0>        -0.0630
     20 C16         5.9717   11.5653   -0.7337 C.3       1 <0>        -0.1189
     21 C17         8.4987    7.2490   -0.5644 C.3       1 <0>        -0.1176
     22 C18        -2.0938    3.1268   -1.8740 C.2       1 <0>         0.4911
     23 O2         -1.9252    4.0277   -2.6711 O.co2     1 <0>        -0.6235
     24 O3         -3.2521    2.4390   -1.8699 O.co2     1 <0>        -0.7576
     25 H1          1.7119    0.9512    2.5260 H         1 <0>         0.0677
     26 H2          2.2683    2.6591    2.5254 H         1 <0>         0.0618
     27 H3          2.9583    1.4892    1.3498 H         1 <0>         0.0589
     28 H4         -0.3735    0.6329    1.6183 H         1 <0>         0.1211
     29 H5         -2.1439    1.1908    0.0072 H         1 <0>         0.1333
     30 H6          0.3261    4.2973   -1.6186 H         1 <0>         0.1405
     31 H7          3.3279    3.3396    0.0783 H         1 <0>         0.4177
     32 H8          4.4798    5.3531   -0.2163 H         1 <0>         0.4239
     33 H9          6.0146    6.2178   -0.3487 H         1 <0>         0.1217
     34 H10         8.1054    9.9135   -0.7306 H         1 <0>         0.1268
     35 H11         3.8481    9.9164   -0.5056 H         1 <0>         0.1398
     36 H12         4.9351   11.9322   -0.7045 H         1 <0>         0.0711
     37 H13         6.4410   11.8673   -1.6816 H         1 <0>         0.0726
     38 H14         6.5361   11.9936    0.1077 H         1 <0>         0.0722
     39 H15         9.3258    7.9673   -0.6640 H         1 <0>         0.0676
     40 H16         8.5137    6.5521   -1.4154 H         1 <0>         0.0722
     41 H17         8.6135    6.6853    0.3732 H         1 <0>         0.0717
@<TRIPOS>BOND
     1    1    2 1
     2    1   25 1
     3    1   26 1
     4    1   27 1
     5    2    7 ar
     6    2    3 ar
     7    3    4 ar
     8    3   28 1
     9    4    5 ar
    10    4   29 1
    11    5    6 ar
    12    5   22 1
    13    6    7 ar
    14    6   30 1
    15    7    8 1
    16    8    9 1
    17    8   31 1
    18    9   10 2
    19    9   11 1
    20   11   12 am
    21   11   32 1
    22   12   13 2
    23   12   14 1
    24   14   19 ar
    25   14   15 ar
    26   15   16 ar
    27   15   33 1
    28   16   17 ar
    29   16   21 1
    30   17   18 ar
    31   17   34 1
    32   18   19 ar
    33   18   20 1
    34   19   35 1
    35   20   36 1
    36   20   37 1
    37   20   38 1
    38   21   39 1
    39   21   40 1
    40   21   41 1
    41   22   23 2
    42   22   24 1
@<TRIPOS>MOLECULE
ZINC40588732
   33    33     0     0     0
SMALL
USER_CHARGES

@<TRIPOS>ATOM
      1 C1         -0.0729    1.6022    0.0346 C.3       1 <0>        -0.1523
      2 C2         -0.0312    0.0728    0.0192 C.3       1 <0>         0.0567
      3 O1         -1.3649   -0.4401    0.0244 O.3       1 <0>        -0.3854
      4 C3         -1.4389   -1.8672    0.0109 C.3       1 <0>         0.0498
      5 C4         -2.9058   -2.3019    0.0178 C.3       1 <0>         0.1440
      6 N1         -3.5494   -1.8687   -1.2249 N.am      1 <0>        -0.7381
      7 C5         -4.8511   -2.1432   -1.4408 C.2       1 <0>         0.7037
      8 O2         -5.4912   -2.7504   -0.6044 O.2       1 <0>        -0.5916
      9 N2         -5.4432   -1.7447   -2.5841 N.am      1 <0>        -0.6543
     10 C6         -6.7602   -2.1076   -2.8487 C.ar      1 <0>         0.2079
     11 C7         -7.6808   -2.1959   -1.8138 C.ar      1 <0>        -0.1332
     12 C8         -8.9878   -2.5564   -2.0788 C.ar      1 <0>        -0.0190
     13 C9         -9.3908   -2.8330   -3.3778 C.ar      1 <0>        -0.1484
     14 C10        -8.4921   -2.7507   -4.4170 C.ar      1 <0>        -0.0560
     15 C11        -7.1663   -2.3808   -4.1655 C.ar      1 <0>        -0.1628
     16 C12        -6.2025   -2.2845   -5.2720 C.2       1 <0>         0.5273
     17 O3         -6.5807   -2.4268   -6.4269 O.co2     1 <0>        -0.6783
     18 O4         -5.0223   -2.0620   -5.0377 O.co2     1 <0>        -0.6863
     19 Cl1       -10.1333   -2.6647   -0.7788 Cl        1 <0>        -0.0897
     20 H1          0.9445    1.9934    0.0307 H         1 <0>         0.0690
     21 H2         -0.6032    1.9601   -0.8478 H         1 <0>         0.0648
     22 H3         -0.5896    1.9425    0.9320 H         1 <0>         0.0619
     23 H4          0.4856   -0.2676   -0.8781 H         1 <0>         0.0490
     24 H5          0.4992   -0.2851    0.9017 H         1 <0>         0.0465
     25 H6         -0.9514   -2.2478   -0.8866 H         1 <0>         0.0586
     26 H7         -0.9378   -2.2653    0.8932 H         1 <0>         0.0655
     27 H8         -2.9626   -3.3875    0.0972 H         1 <0>         0.0808
     28 H9         -3.4152   -1.8483    0.8681 H         1 <0>         0.0735
     29 H10        -3.0387   -1.3843   -1.8923 H         1 <0>         0.4029
     30 H11        -4.9512   -1.2049   -3.2225 H         1 <0>         0.4234
     31 H12        -7.3749   -1.9830   -0.8001 H         1 <0>         0.1459
     32 H13       -10.4148   -3.1147   -3.5741 H         1 <0>         0.1256
     33 H14        -8.8110   -2.9670   -5.4260 H         1 <0>         0.1387
@<TRIPOS>BOND
     1    1    2 1
     2    1   20 1
     3    1   21 1
     4    1   22 1
     5    2    3 1
     6    2   23 1
     7    2   24 1
     8    3    4 1
     9    4    5 1
    10    4   25 1
    11    4   26 1
    12    5    6 1
    13    5   27 1
    14    5   28 1
    15    6    7 am
    16    6   29 1
    17    7    8 2
    18    7    9 am
    19    9   10 1
    20    9   30 1
    21   10   15 ar
    22   10   11 ar
    23   11   12 ar
    24   11   31 1
    25   12   13 ar
    26   12   19 1
    27   13   14 ar
    28   13   32 1
    29   14   15 ar
    30   14   33 1
    31   15   16 1
    32   16   17 2
    33   16   18 1
@<TRIPOS>MOLECULE
ZINC50032507
   41    42     0     0     0
SMALL
USER_CHARGES

@<TRIPOS>ATOM
      1 C1         -0.3221    1.9982   -0.5857 C.3       1 <0>        -0.1497
      2 C2         -0.2174    0.4765   -0.4659 C.3       1 <0>        -0.1234
      3 C3          0.5095   -0.0827   -1.6905 C.3       1 <0>         0.0630
      4 O1          0.6073   -1.5039   -1.5786 O.3       1 <0>        -0.3836
      5 C4          1.2734   -2.1290   -2.6775 C.3       1 <0>         0.0748
      6 H1          1.1116   -1.5428   -3.5821 H         1 <0>         0.0617
      7 C5          2.7732   -2.2132   -2.3849 C.3       1 <0>        -0.1327
      8 C6          3.4918   -2.8527   -3.5751 C.3       1 <0>        -0.1339
      9 C7          2.9595   -4.2739   -3.7843 C.3       1 <0>         0.1436
     10 N1          1.4979   -4.2159   -3.9221 N.pl3     1 <0>        -0.6563
     11 C8          0.7154   -3.5417   -2.8771 C.3       1 <0>         0.1528
     12 C9          0.8616   -4.7925   -5.0299 C.ar      1 <0>         0.0442
     13 C10         0.4469   -6.1089   -4.9774 C.ar      1 <0>        -0.0075
     14 C11        -0.1892   -6.6841   -6.0846 C.ar      1 <0>        -0.2264
     15 C12        -0.4007   -5.9154   -7.2420 C.ar      1 <0>         0.2803
     16 C13         0.0221   -4.5938   -7.2788 C.ar      1 <0>        -0.2643
     17 C14         0.6440   -4.0335   -6.1796 C.ar      1 <0>         0.1354
     18 F1          1.0483   -2.7450   -6.2205 F         1 <0>        -0.1472
     19 N2         -1.0306   -6.4769   -8.3463 N.pl3     1 <0>        -0.8531
     20 C15        -0.6327   -8.0836   -6.0365 C.2       1 <0>         0.5343
     21 O2         -0.3459   -8.7837   -5.0745 O.co2     1 <0>        -0.6815
     22 O3         -1.2889   -8.5496   -6.9585 O.co2     1 <0>        -0.6903
     23 H2          0.6780    2.4279   -0.6421 H         1 <0>         0.0544
     24 H3         -0.8789    2.2543   -1.4870 H         1 <0>         0.0555
     25 H4         -0.8400    2.3966    0.2868 H         1 <0>         0.0597
     26 H5          0.3394    0.2205    0.4355 H         1 <0>         0.0688
     27 H6         -1.2175    0.0469   -0.4094 H         1 <0>         0.0703
     28 H7         -0.0473    0.1734   -2.5919 H         1 <0>         0.0463
     29 H8          1.5097    0.3470   -1.7470 H         1 <0>         0.0445
     30 H9          3.1675   -1.2107   -2.2185 H         1 <0>         0.0560
     31 H10         2.9358   -2.8196   -1.4939 H         1 <0>         0.0686
     32 H11         3.3092   -2.2602   -4.4716 H         1 <0>         0.0643
     33 H12         4.5627   -2.8910   -3.3757 H         1 <0>         0.0676
     34 H13         3.3953   -4.6978   -4.6890 H         1 <0>         0.0699
     35 H14         3.2214   -4.8922   -2.9257 H         1 <0>         0.0497
     36 H15         0.7938   -4.1006   -1.9446 H         1 <0>         0.0566
     37 H16        -0.3291   -3.4821   -3.1831 H         1 <0>         0.0724
     38 H17         0.6132   -6.6934   -4.0847 H         1 <0>         0.1334
     39 H18        -0.1389   -4.0011   -8.1672 H         1 <0>         0.1223
     40 H19        -1.3998   -7.3722   -8.2909 H         1 <0>         0.4218
     41 H20        -1.1009   -5.9736   -9.1725 H         1 <0>         0.3778
@<TRIPOS>BOND
     1    1    2 1
     2    1   23 1
     3    1   24 1
     4    1   25 1
     5    2    3 1
     6    2   26 1
     7    2   27 1
     8    3    4 1
     9    3   28 1
    10    3   29 1
    11    4    5 1
    12    5    6 1
    13    5   11 1
    14    5    7 1
    15    7    8 1
    16    7   30 1
    17    7   31 1
    18    8    9 1
    19    8   32 1
    20    8   33 1
    21    9   10 1
    22    9   34 1
    23    9   35 1
    24   10   11 1
    25   10   12 1
    26   11   36 1
    27   11   37 1
    28   12   17 ar
    29   12   13 ar
    30   13   14 ar
    31   13   38 1
    32   14   15 ar
    33   14   20 1
    34   15   16 ar
    35   15   19 1
    36   16   17 ar
    37   16   39 1
    38   17   18 1
    39   19   40 1
    40   19   41 1
    41   20   21 2
    42   20   22 1
@<TRIPOS>MOLECULE
ZINC52344166
   41    41     0     0     0
SMALL
USER_CHARGES

@<TRIPOS>ATOM
      1 C1         -0.0187    1.5258    0.0104 C.3       1 <0>        -0.1671
      2 C2          0.0021   -0.0041    0.0020 C.3       1 <0>         0.1654
      3 H1         -1.0205   -0.3814    0.0098 H         1 <0>         0.0864
      4 C3          0.7421   -0.5109    1.2415 C.3       1 <0>        -0.0940
      5 C4          2.1358    0.1178    1.2961 C.3       1 <0>        -0.1180
      6 C5          2.8758   -0.3890    2.5356 C.3       1 <0>        -0.1199
      7 C6          2.0922   -0.0017    3.7913 C.3       1 <0>        -0.1199
      8 C7          0.6984   -0.6305    3.7368 C.3       1 <0>        -0.1189
      9 C8         -0.0416   -0.1236    2.4973 C.3       1 <0>        -0.1130
     10 N1          0.6878   -0.4765   -1.2033 N.am      1 <0>        -0.7459
     11 C9          0.0062   -0.6081   -2.3585 C.2       1 <0>         0.7013
     12 O1         -1.1778   -0.3348   -2.4004 O.2       1 <0>        -0.5956
     13 N2          0.6370   -1.0428   -3.4674 N.am      1 <0>        -0.7422
     14 C10        -0.1039   -1.1859   -4.7231 C.3       1 <0>         0.1349
     15 C11         0.8390   -1.6915   -5.8168 C.3       1 <0>        -0.1035
     16 C12         0.0653   -1.8409   -7.1283 C.3       1 <0>        -0.1805
     17 C13         0.9940   -2.3390   -8.2055 C.2       1 <0>         0.4901
     18 O2          2.1661   -2.5544   -7.9482 O.co2     1 <0>        -0.6999
     19 O3          0.5733   -2.5264   -9.3344 O.co2     1 <0>        -0.7056
     20 H2          1.0039    1.9031    0.0027 H         1 <0>         0.0583
     21 H3         -0.5459    1.8868   -0.8726 H         1 <0>         0.0603
     22 H4         -0.5289    1.8773    0.9072 H         1 <0>         0.0639
     23 H5          0.8346   -1.5958    1.1912 H         1 <0>         0.0759
     24 H6          2.6941   -0.1581    0.4015 H         1 <0>         0.0602
     25 H7          2.0433    1.2027    1.3464 H         1 <0>         0.0697
     26 H8          2.9684   -1.4739    2.4852 H         1 <0>         0.0611
     27 H9          3.8688    0.0589    2.5744 H         1 <0>         0.0608
     28 H10         2.6194   -0.3628    4.6744 H         1 <0>         0.0589
     29 H11         1.9997    1.0832    3.8417 H         1 <0>         0.0610
     30 H12         0.7909   -1.7154    3.6864 H         1 <0>         0.0612
     31 H13         0.1401   -0.3546    4.6314 H         1 <0>         0.0612
     32 H14        -0.1341    0.9613    2.5476 H         1 <0>         0.0679
     33 H15        -1.0345   -0.5716    2.4584 H         1 <0>         0.0645
     34 H16         1.6324   -0.6946   -1.1699 H         1 <0>         0.3932
     35 H17         1.5816   -1.2609   -3.4340 H         1 <0>         0.3959
     36 H18        -0.9168   -1.8989   -4.5861 H         1 <0>         0.0610
     37 H19        -0.5138   -0.2191   -5.0153 H         1 <0>         0.0609
     38 H20         1.6520   -0.9785   -5.9539 H         1 <0>         0.0654
     39 H21         1.2490   -2.6583   -5.5247 H         1 <0>         0.0654
     40 H22        -0.7477   -2.5539   -6.9913 H         1 <0>         0.0597
     41 H23        -0.3447   -0.8741   -7.4204 H         1 <0>         0.0597
@<TRIPOS>BOND
     1    1    2 1
     2    1   20 1
     3    1   21 1
     4    1   22 1
     5    2    3 1
     6    2    4 1
     7    2   10 1
     8    4    9 1
     9    4    5 1
    10    4   23 1
    11    5    6 1
    12    5   24 1
    13    5   25 1
    14    6    7 1
    15    6   26 1
    16    6   27 1
    17    7    8 1
    18    7   28 1
    19    7   29 1
    20    8    9 1
    21    8   30 1
    22    8   31 1
    23    9   32 1
    24    9   33 1
    25   10   11 am
    26   10   34 1
    27   11   12 2
    28   11   13 am
    29   13   14 1
    30   13   35 1
    31   14   15 1
    32   14   36 1
    33   14   37 1
    34   15   16 1
    35   15   38 1
    36   15   39 1
    37   16   17 1
    38   16   40 1
    39   16   41 1
    40   17   18 2
    41   17   19 1
@<TRIPOS>MOLECULE
ZINC62934130
   39    40     0     0     0
SMALL
USER_CHARGES

@<TRIPOS>ATOM
      1 C1         -0.0187    1.5258    0.0104 C.3       1 <0>        -0.1482
      2 C2          0.0021   -0.0041    0.0020 C.3       1 <0>        -0.1318
      3 C3          0.7421   -0.5109    1.2415 C.3       1 <0>        -0.0796
      4 C4          0.7628   -2.0407    1.2331 C.3       1 <0>        -0.1362
      5 C5          1.6218   -2.5716    0.0551 C.3       1 <0>        -0.1061
      6 C6          2.0696   -3.9530    0.5945 C.3       1 <0>         0.1421
      7 N1          2.3002   -3.7390    2.0348 N.pl3     1 <0>        -0.6843
      8 C7          1.5038   -2.5836    2.4733 C.3       1 <0>         0.1561
      9 C8          3.1330   -4.5041    2.8451 C.ar      1 <0>         0.2499
     10 C9          4.4703   -4.1496    2.9979 C.ar      1 <0>        -0.1283
     11 C10         5.2968   -4.9043    3.7986 C.ar      1 <0>        -0.0507
     12 C11         4.7923   -6.0281    4.4597 C.ar      1 <0>        -0.1491
     13 C12         3.4488   -6.3819    4.3052 C.ar      1 <0>        -0.0770
     14 C13         2.6254   -5.6200    3.5064 C.ar      1 <0>        -0.0615
     15 Cl1         0.9552   -6.0546    3.3181 Cl        1 <0>        -0.0293
     16 C14         5.6762   -6.8391    5.3183 C.2       1 <0>         0.5710
     17 O1          6.8448   -6.5305    5.4516 O.2       1 <0>        -0.5439
     18 N2          5.1885   -7.9222    5.9551 N.am      1 <0>        -0.8523
     19 C15        -0.6387   -2.5907    1.1663 C.2       1 <0>         0.5102
     20 O2         -1.3612   -2.3057    0.2264 O.co2     1 <0>        -0.6917
     21 O3         -1.0500   -3.3206    2.0520 O.co2     1 <0>        -0.6816
     22 H1          1.0039    1.9031    0.0027 H         1 <0>         0.0399
     23 H2         -0.5459    1.8868   -0.8726 H         1 <0>         0.0453
     24 H3         -0.5289    1.8773    0.9072 H         1 <0>         0.0456
     25 H4         -1.0205   -0.3814    0.0098 H         1 <0>         0.1041
     26 H5          0.5123   -0.3556   -0.8948 H         1 <0>         0.0510
     27 H6          1.7647   -0.1336    1.2338 H         1 <0>         0.0426
     28 H7          0.2319   -0.1594    2.1383 H         1 <0>         0.0496
     29 H8          1.0214   -2.6808   -0.8480 H         1 <0>         0.0781
     30 H9          2.4808   -1.9251   -0.1245 H         1 <0>         0.0579
     31 H10         1.2837   -4.6927    0.4420 H         1 <0>         0.0502
     32 H11         2.9907   -4.2706    0.1059 H         1 <0>         0.0472
     33 H12         2.1598   -1.8138    2.8795 H         1 <0>         0.0278
     34 H13         0.7827   -2.8956    3.2288 H         1 <0>         0.0689
     35 H14         4.8599   -3.2815    2.4871 H         1 <0>         0.1375
     36 H15         6.3345   -4.6288    3.9159 H         1 <0>         0.1390
     37 H16         3.0562   -7.2495    4.8146 H         1 <0>         0.1320
     38 H17         4.2563   -8.1685    5.8488 H         1 <0>         0.4019
     39 H18         5.7696   -8.4555    6.5196 H         1 <0>         0.4039
@<TRIPOS>BOND
     1    1    2 1
     2    1   22 1
     3    1   23 1
     4    1   24 1
     5    2    3 1
     6    2   25 1
     7    2   26 1
     8    3    4 1
     9    3   27 1
    10    3   28 1
    11    4    8 1
    12    4    5 1
    13    4   19 1
    14    5    6 1
    15    5   29 1
    16    5   30 1
    17    6    7 1
    18    6   31 1
    19    6   32 1
    20    7    8 1
    21    7    9 1
    22    8   33 1
    23    8   34 1
    24    9   14 ar
    25    9   10 ar
    26   10   11 ar
    27   10   35 1
    28   11   12 ar
    29   11   36 1
    30   12   13 ar
    31   12   16 1
    32   13   14 ar
    33   13   37 1
    34   14   15 1
    35   16   17 2
    36   16   18 am
    37   18   38 1
    38   18   39 1
    39   19   20 2
    40   19   21 1
@<TRIPOS>MOLECULE
ZINC35358230
   34    35     0     0     0
SMALL
USER_CHARGES

@<TRIPOS>ATOM
      1 C1         -0.2214    1.2495    0.8793 C.3       1 <0>         0.0243
      2 O1         -0.1638   -0.1553    0.6239 O.3       1 <0>        -0.3142
      3 C2          0.5318   -0.5553   -0.4746 C.ar      1 <0>         0.1165
      4 C3          1.1494    0.3831   -1.2845 C.ar      1 <0>        -0.1742
      5 C4          1.8559   -0.0243   -2.4012 C.ar      1 <0>        -0.0794
      6 C5          1.9482   -1.3691   -2.7132 C.ar      1 <0>        -0.0413
      7 C6          1.3341   -2.3122   -1.9091 C.ar      1 <0>        -0.1257
      8 C7          0.6292   -1.9102   -0.7840 C.ar      1 <0>         0.1381
      9 N1          0.0120   -2.8628    0.0348 N.pl3     1 <0>        -1.0509
     10 S1          0.7292   -4.3357    0.2770 S.o2      1 <0>         2.6907
     11 O2         -0.0547   -5.0143    1.2487 O.2       1 <0>        -0.9437
     12 O3          0.9849   -4.8796   -1.0107 O.2       1 <0>        -0.9421
     13 C8          2.2996   -4.0351    1.0175 C.ar      1 <0>        -0.7941
     14 C9          3.4646   -4.3725    0.3521 C.ar      1 <0>         0.0683
     15 C10         4.6799   -4.1177    0.9732 C.ar      1 <0>        -0.2489
     16 C11         4.6905   -3.5396    2.2269 C.ar      1 <0>         0.2080
     17 N2          3.5634   -3.2286    2.8383 N.ar      1 <0>        -0.5315
     18 C12         2.3848   -3.4501    2.2765 C.ar      1 <0>         0.5022
     19 N3          1.2223   -3.1008    2.9540 N.pl3     1 <0>        -0.5609
     20 N4          1.2909   -2.6550    4.2433 N.3       1 <0>        -0.5896
     21 Cl1         2.8362   -1.8737   -4.1169 Cl        1 <0>        -0.0539
     22 H1          0.7887    1.6357    1.0156 H         1 <0>         0.0591
     23 H2         -0.6922    1.7532    0.0350 H         1 <0>         0.0612
     24 H3         -0.8047    1.4310    1.7820 H         1 <0>         0.1042
     25 H4          1.0789    1.4336   -1.0440 H         1 <0>         0.1447
     26 H5          2.3365    0.7091   -3.0317 H         1 <0>         0.1425
     27 H6          1.4071   -3.3614   -2.1545 H         1 <0>         0.1782
     28 H7         -0.8357   -2.6604    0.4605 H         1 <0>         0.4299
     29 H8          3.4295   -4.8242   -0.6283 H         1 <0>         0.1552
     30 H9          5.6075   -4.3695    0.4807 H         1 <0>         0.1462
     31 H10         5.6337   -3.3397    2.7137 H         1 <0>         0.1676
     32 H11         0.3624   -3.1736    2.5111 H         1 <0>         0.4037
     33 H12         1.8284   -1.8031    4.3033 H         1 <0>         0.3476
     34 H13         0.3683   -2.5284    4.6318 H         1 <0>         0.3622
@<TRIPOS>BOND
     1    1    2 1
     2    1   22 1
     3    1   23 1
     4    1   24 1
     5    2    3 1
     6    3    8 ar
     7    3    4 ar
     8    4    5 ar
     9    4   25 1
    10    5    6 ar
    11    5   26 1
    12    6    7 ar
    13    6   21 1
    14    7    8 ar
    15    7   27 1
    16    8    9 1
    17    9   10 1
    18    9   28 1
    19   10   11 2
    20   10   12 2
    21   10   13 1
    22   13   18 ar
    23   13   14 ar
    24   14   15 ar
    25   14   29 1
    26   15   16 ar
    27   15   30 1
    28   16   17 ar
    29   16   31 1
    30   17   18 ar
    31   18   19 1
    32   19   20 1
    33   19   32 1
    34   20   33 1
    35   20   34 1
@<TRIPOS>MOLECULE
ZINC45140802
   43    44     0     0     0
SMALL
USER_CHARGES

@<TRIPOS>ATOM
      1 C1         -0.0187    1.5258    0.0104 C.3       1 <0>        -0.1502
      2 C2          0.0021   -0.0041    0.0020 C.3       1 <0>        -0.1383
      3 C3         -1.4333   -0.5336    0.0129 C.3       1 <0>         0.1187
      4 N1         -1.4134   -1.9985    0.0048 N.pl3     1 <0>        -0.6841
      5 C4         -2.5713   -2.6882    0.0122 C.2       1 <0>         0.5584
      6 S1         -4.0654   -1.8525    0.0309 S.2       1 <0>        -0.5803
      7 N2         -2.5531   -4.0358    0.0048 N.pl3     1 <0>        -0.4691
      8 N3         -1.3304   -4.7197   -0.0106 N.am      1 <0>        -0.5480
      9 C5         -1.3122   -6.0673   -0.0180 C.2       1 <0>         0.5212
     10 O1         -2.3541   -6.6880   -0.0114 O.2       1 <0>        -0.4899
     11 C6          0.0030   -6.8030   -0.0345 C.3       1 <0>         0.0539
     12 O2         -0.2390   -8.2113   -0.0398 O.3       1 <0>        -0.2863
     13 C7          0.8503   -9.0248   -0.0545 C.ar      1 <0>         0.1082
     14 C8          2.1250   -8.4768   -0.0580 C.ar      1 <0>        -0.1791
     15 C9          3.2319   -9.3020   -0.0733 C.ar      1 <0>        -0.1085
     16 C10         3.0690  -10.6809   -0.0848 C.ar      1 <0>         0.1274
     17 C11         1.7931  -11.2284   -0.0810 C.ar      1 <0>        -0.0800
     18 C12         0.6869  -10.4023   -0.0604 C.ar      1 <0>        -0.1064
     19 C13         1.6194  -12.7250   -0.0924 C.3       1 <0>        -0.0800
     20 C14         2.7421  -13.3638   -0.9105 C.3       1 <0>        -0.1390
     21 C15         4.0718  -12.8069   -0.4787 C.2       1 <0>         0.5202
     22 O3          5.0491  -13.5254   -0.4720 O.2       1 <0>        -0.5251
     23 N4          4.1892  -11.5210   -0.0999 N.am      1 <0>        -0.6632
     24 H1          1.0039    1.9031    0.0027 H         1 <0>         0.0634
     25 H2         -0.5459    1.8868   -0.8726 H         1 <0>         0.0623
     26 H3         -0.5289    1.8773    0.9072 H         1 <0>         0.0623
     27 H4          0.5123   -0.3556   -0.8948 H         1 <0>         0.0693
     28 H5          0.5293   -0.3651    0.8851 H         1 <0>         0.0693
     29 H6         -1.9435   -0.1821    0.9097 H         1 <0>         0.0926
     30 H7         -1.9605   -0.1726   -0.8702 H         1 <0>         0.0926
     31 H8         -0.5669   -2.4720   -0.0058 H         1 <0>         0.3904
     32 H9         -3.3864   -4.5322    0.0101 H         1 <0>         0.4604
     33 H10        -0.4971   -4.2233   -0.0159 H         1 <0>         0.4209
     34 H11         0.5624   -6.5271   -0.9284 H         1 <0>         0.1037
     35 H12         0.5794   -6.5367    0.8515 H         1 <0>         0.1036
     36 H13         2.2514   -7.4043   -0.0492 H         1 <0>         0.1342
     37 H14         4.2240   -8.8752   -0.0765 H         1 <0>         0.1347
     38 H15        -0.3054  -10.8285   -0.0532 H         1 <0>         0.1430
     39 H16         1.6548  -13.1024    0.9296 H         1 <0>         0.0893
     40 H17         0.6571  -12.9755   -0.5387 H         1 <0>         0.0975
     41 H18         2.7340  -14.4428   -0.7557 H         1 <0>         0.1127
     42 H19         2.5862  -13.1500   -1.9679 H         1 <0>         0.1058
     43 H20         5.0555  -11.1737    0.1641 H         1 <0>         0.4114
@<TRIPOS>BOND
     1    1    2 1
     2    1   24 1
     3    1   25 1
     4    1   26 1
     5    2    3 1
     6    2   27 1
     7    2   28 1
     8    3    4 1
     9    3   29 1
    10    3   30 1
    11    4    5 1
    12    4   31 1
    13    5    6 2
    14    5    7 1
    15    7    8 1
    16    7   32 1
    17    8    9 am
    18    8   33 1
    19    9   10 2
    20    9   11 1
    21   11   12 1
    22   11   34 1
    23   11   35 1
    24   12   13 1
    25   13   18 ar
    26   13   14 ar
    27   14   15 ar
    28   14   36 1
    29   15   16 ar
    30   15   37 1
    31   16   23 1
    32   16   17 ar
    33   17   18 ar
    34   17   19 1
    35   18   38 1
    36   19   20 1
    37   19   39 1
    38   19   40 1
    39   20   21 1
    40   20   41 1
    41   20   42 1
    42   21   22 2
    43   21   23 am
    44   23   43 1
@<TRIPOS>MOLECULE
ZINC06373045
   43    45     0     0     0
SMALL
USER_CHARGES

@<TRIPOS>ATOM
      1 C1         -0.0077    1.4069    0.0034 C.3       1 <0>         0.0253
      2 O1          0.0100   -0.0218    0.0277 O.3       1 <0>        -0.3154
      3 C2         -1.1929   -0.6537    0.0334 C.ar      1 <0>         0.1399
      4 C3         -2.3656    0.0892    0.0102 C.ar      1 <0>        -0.2097
      5 C4         -3.5880   -0.5489    0.0159 C.ar      1 <0>        -0.0448
      6 C5         -3.6454   -1.9420    0.0450 C.ar      1 <0>        -0.0577
      7 C6         -2.4656   -2.6851    0.0683 C.ar      1 <0>        -0.0495
      8 C7         -1.2465   -2.0408    0.0567 C.ar      1 <0>        -0.1503
      9 C8         -4.9574   -2.6311    0.0517 C.2       1 <0>         0.1575
     10 C9         -5.3128   -3.8349   -0.7060 C.2       1 <0>        -0.1776
     11 C10        -6.6260   -4.1183   -0.3958 C.2       1 <0>         0.0944
     12 N1         -7.0562   -3.1809    0.4751 N.pl3     1 <0>        -0.3184
     13 N2         -6.0204   -2.2812    0.7430 N.2       1 <0>        -0.2751
     14 C11        -8.3410   -3.1222    1.0296 C.ar      1 <0>         0.1589
     15 C12        -9.2873   -4.0823    0.6961 C.ar      1 <0>        -0.1419
     16 C13       -10.5534   -4.0216    1.2445 C.ar      1 <0>        -0.0918
     17 C14       -10.8794   -3.0058    2.1245 C.ar      1 <0>        -0.1294
     18 C15        -9.9393   -2.0482    2.4585 C.ar      1 <0>        -0.0945
     19 C16        -8.6696   -2.1069    1.9183 C.ar      1 <0>        -0.1193
     20 C17        -4.4402   -4.5912   -1.6185 C.2       1 <0>         0.1898
     21 N3         -4.9218   -5.5940   -2.3002 N.2       1 <0>        -0.3525
     22 N4         -4.0699   -6.3790   -3.0879 N.2       1 <0>        -0.5264
     23 C18        -4.5363   -7.4480   -3.6969 C.2       1 <0>         0.6476
     24 N5         -5.8784   -7.7360   -3.6475 N.pl3     1 <0>        -0.8732
     25 N6         -3.6810   -8.2761   -4.3822 N.pl3     1 <0>        -0.8399
     26 H1          1.0153    1.7830    0.0013 H         1 <0>         0.1016
     27 H2         -0.5223    1.7487   -0.8947 H         1 <0>         0.0573
     28 H3         -0.5298    1.7789    0.8850 H         1 <0>         0.0573
     29 H4         -2.3204    1.1680   -0.0120 H         1 <0>         0.1327
     30 H5         -4.4999    0.0295   -0.0019 H         1 <0>         0.1297
     31 H6         -2.5067   -3.7641    0.0912 H         1 <0>         0.1367
     32 H7         -0.3324   -2.6158    0.0703 H         1 <0>         0.1373
     33 H8         -7.2071   -4.9429   -0.7814 H         1 <0>         0.1858
     34 H9         -9.0336   -4.8755    0.0084 H         1 <0>         0.1304
     35 H10       -11.2898   -4.7680    0.9856 H         1 <0>         0.1333
     36 H11       -11.8704   -2.9601    2.5514 H         1 <0>         0.1293
     37 H12       -10.1971   -1.2560    3.1458 H         1 <0>         0.1327
     38 H13        -7.9345   -1.3613    2.1831 H         1 <0>         0.1385
     39 H14        -3.4012   -4.3161   -1.7238 H         1 <0>         0.1114
     40 H15        -6.4927   -7.1139   -3.2273 H         1 <0>         0.4200
     41 H16        -2.7332   -8.0727   -4.4172 H         1 <0>         0.4203
     42 H17        -4.0248   -9.0642   -4.8312 H         1 <0>         0.4084
     43 H18        -6.2119   -8.5614   -4.0327 H         1 <0>         0.3915
@<TRIPOS>BOND
     1    1    2 1
     2    1   26 1
     3    1   27 1
     4    1   28 1
     5    2    3 1
     6    3    8 ar
     7    3    4 ar
     8    4    5 ar
     9    4   29 1
    10    5    6 ar
    11    5   30 1
    12    6    7 ar
    13    6    9 1
    14    7    8 ar
    15    7   31 1
    16    8   32 1
    17    9   13 2
    18    9   10 1
    19   10   11 2
    20   10   20 1
    21   11   12 1
    22   11   33 1
    23   12   13 1
    24   12   14 1
    25   14   19 ar
    26   14   15 ar
    27   15   16 ar
    28   15   34 1
    29   16   17 ar
    30   16   35 1
    31   17   18 ar
    32   17   36 1
    33   18   19 ar
    34   18   37 1
    35   19   38 1
    36   20   21 2
    37   20   39 1
    38   21   22 1
    39   22   23 2
    40   23   24 1
    41   23   25 1
    42   24   40 1
    43   24   43 1
    44   25   41 1
    45   25   42 1
@<TRIPOS>MOLECULE
ZINC65143358
   48    49     0     0     0
SMALL
USER_CHARGES

@<TRIPOS>ATOM
      1 C1         -0.0372    1.5887    0.0868 C.3       1 <0>        -0.1541
      2 C2         -0.0078    0.0590    0.0730 C.3       1 <0>        -0.0927
      3 C3          0.7279   -0.4482    1.3150 C.3       1 <0>        -0.1484
      4 C4         -1.4402   -0.4786    0.0737 C.3       1 <0>        -0.1292
      5 C5         -2.1369   -0.0754   -1.2274 C.3       1 <0>         0.1321
      6 N1         -3.5085   -0.5902   -1.2267 N.am      1 <0>        -0.7443
      7 C6         -4.3168   -0.3557   -2.2794 C.2       1 <0>         0.7132
      8 O1         -3.9077    0.2831   -3.2296 O.2       1 <0>        -0.5664
      9 N2         -5.5786   -0.8293   -2.2788 N.am      1 <0>        -0.5300
     10 N3         -6.0501   -1.5653   -1.1839 N.am      1 <0>        -0.5280
     11 C7         -7.3119   -2.0389   -1.1832 C.2       1 <0>         0.5666
     12 O2         -8.0411   -1.8274   -2.1329 O.2       1 <0>        -0.5264
     13 C8         -7.8085   -2.8144   -0.0297 C.ar      1 <0>        -0.1481
     14 C9         -6.9736   -3.0534    1.0651 C.ar      1 <0>        -0.0657
     15 C10        -7.4401   -3.7767    2.1396 C.ar      1 <0>        -0.1284
     16 C11        -8.7411   -4.2698    2.1361 C.ar      1 <0>         0.1781
     17 C12        -9.5749   -4.0339    1.0475 C.ar      1 <0>        -0.1507
     18 C13        -9.1166   -3.3061   -0.0275 C.ar      1 <0>        -0.0304
     19 N4         -9.2103   -5.0023    3.2259 N.am      1 <0>        -0.6710
     20 C14        -8.3764   -5.8219    3.8962 C.2       1 <0>         0.5459
     21 O3         -7.1997   -5.8600    3.6051 O.2       1 <0>        -0.5141
     22 C15        -8.9062   -6.6910    5.0076 C.3       1 <0>        -0.2009
     23 C16        -8.4648   -6.3600    6.4347 C.3       1 <0>        -0.1495
     24 C17        -7.9095   -7.5995    5.7302 C.3       1 <0>        -0.1434
     25 H1          0.9833    1.9717    0.0863 H         1 <0>         0.0571
     26 H2         -0.5613    1.9500   -0.7979 H         1 <0>         0.0588
     27 H3         -0.5545    1.9341    0.9819 H         1 <0>         0.0555
     28 H4          0.5095   -0.2864   -0.8221 H         1 <0>         0.0747
     29 H5          0.2106   -0.1028    2.2101 H         1 <0>         0.0553
     30 H6          0.7488   -1.5379    1.3051 H         1 <0>         0.0553
     31 H7          1.7484   -0.0652    1.3144 H         1 <0>         0.0577
     32 H8         -1.4203   -1.5655    0.1535 H         1 <0>         0.0708
     33 H9         -1.9843   -0.0620    0.9214 H         1 <0>         0.0708
     34 H10        -2.1568    1.0115   -1.3071 H         1 <0>         0.0743
     35 H11        -1.5929   -0.4920   -2.0751 H         1 <0>         0.0711
     36 H12        -3.8349   -1.0998   -0.4686 H         1 <0>         0.3900
     37 H13        -6.1604   -0.6606   -3.0364 H         1 <0>         0.4448
     38 H14        -5.4683   -1.7341   -0.4262 H         1 <0>         0.4180
     39 H15        -5.9633   -2.6716    1.0681 H         1 <0>         0.1267
     40 H16        -6.7953   -3.9618    2.9860 H         1 <0>         0.1480
     41 H17       -10.5841   -4.4184    1.0478 H         1 <0>         0.1379
     42 H18        -9.7659   -3.1193   -0.8701 H         1 <0>         0.1451
     43 H19       -10.1369   -4.9220    3.5015 H         1 <0>         0.4169
     44 H20        -9.9200   -7.0664    4.8683 H         1 <0>         0.1294
     45 H21        -7.7913   -5.5137    6.5697 H         1 <0>         0.1014
     46 H22        -9.1883   -6.5176    7.2346 H         1 <0>         0.1089
     47 H23        -8.2677   -8.5724    6.0666 H         1 <0>         0.1075
     48 H24        -6.8706   -7.5686    5.4017 H         1 <0>         0.1101
@<TRIPOS>BOND
     1    1    2 1
     2    1   25 1
     3    1   26 1
     4    1   27 1
     5    2    3 1
     6    2    4 1
     7    2   28 1
     8    3   29 1
     9    3   30 1
    10    3   31 1
    11    4    5 1
    12    4   32 1
    13    4   33 1
    14    5    6 1
    15    5   34 1
    16    5   35 1
    17    6    7 am
    18    6   36 1
    19    7    8 2
    20    7    9 am
    21    9   10 1
    22    9   37 1
    23   10   11 am
    24   10   38 1
    25   11   12 2
    26   11   13 1
    27   13   18 ar
    28   13   14 ar
    29   14   15 ar
    30   14   39 1
    31   15   16 ar
    32   15   40 1
    33   16   17 ar
    34   16   19 1
    35   17   18 ar
    36   17   41 1
    37   18   42 1
    38   19   20 am
    39   19   43 1
    40   20   21 2
    41   20   22 1
    42   22   24 1
    43   22   23 1
    44   22   44 1
    45   23   24 1
    46   23   45 1
    47   23   46 1
    48   24   47 1
    49   24   48 1
@<TRIPOS>MOLECULE
ZINC67103381
   54    55     0     0     0
SMALL
USER_CHARGES

@<TRIPOS>ATOM
      1 C1          1.2275   -2.7368    3.5423 C.3       1 <0>        -0.1217
      2 C2          0.1444   -3.6538    2.9704 C.3       1 <0>        -0.1192
      3 C3          0.7763   -4.6322    1.9782 C.3       1 <0>        -0.1153
      4 C4          1.4354   -3.8502    0.8403 C.3       1 <0>        -0.0699
      5 C5          2.5184   -2.9331    1.4122 C.3       1 <0>        -0.1210
      6 C6          1.8866   -1.9547    2.4043 C.3       1 <0>        -0.1178
      7 C7          2.0672   -4.8286   -0.1519 C.3       1 <0>        -0.1264
      8 C8          2.6087   -4.0661   -1.3336 C.2       1 <0>         0.5143
      9 O1          2.5000   -2.8589   -1.3778 O.2       1 <0>        -0.5355
     10 N1          3.2139   -4.7256   -2.3412 N.am      1 <0>        -0.5107
     11 N2          3.7173   -4.0167   -3.4398 N.am      1 <0>        -0.5438
     12 C9          4.4107   -4.6625   -4.3982 C.2       1 <0>         0.7139
     13 O2          4.5199   -5.8729   -4.3585 O.2       1 <0>        -0.5883
     14 N3          4.9831   -3.9668   -5.4006 N.am      1 <0>        -0.6193
     15 C10         4.9627   -2.4977   -5.3990 C.3       1 <0>         0.1075
     16 C11         4.3784   -2.0113   -6.7290 C.3       1 <0>        -0.1363
     17 C12         5.1694   -2.6277   -7.8850 C.3       1 <0>        -0.1156
     18 C13         5.0477   -4.1524   -7.8328 C.3       1 <0>        -0.1037
     19 H1          3.9970   -4.4358   -7.8936 H         1 <0>         0.0778
     20 C14         5.6446   -4.6630   -6.5125 C.3       1 <0>         0.1322
     21 C15         5.8110   -4.7661   -9.0083 C.3       1 <0>        -0.0971
     22 C16         5.5865   -6.2794   -9.0277 C.3       1 <0>        -0.1470
     23 C17         6.3383   -6.8839  -10.1855 C.2       1 <0>         0.5152
     24 O3          6.9896   -6.1742  -10.9225 O.2       1 <0>        -0.5439
     25 N4          6.2870   -8.2132  -10.4020 N.am      1 <0>        -0.8587
     26 H2          0.7773   -2.0398    4.2491 H         1 <0>         0.0599
     27 H3          1.9796   -3.3377    4.0535 H         1 <0>         0.0605
     28 H4         -0.3251   -4.2110    3.7811 H         1 <0>         0.0622
     29 H5         -0.6077   -3.0530    2.4592 H         1 <0>         0.0621
     30 H6          1.5284   -5.2331    2.4894 H         1 <0>         0.0640
     31 H7          0.0047   -5.2855    1.5708 H         1 <0>         0.0633
     32 H8          0.6833   -3.2493    0.3291 H         1 <0>         0.0804
     33 H9          3.2706   -3.5340    1.9234 H         1 <0>         0.0558
     34 H10         2.9880   -2.3760    0.6015 H         1 <0>         0.0797
     35 H11         1.1344   -1.3539    1.8931 H         1 <0>         0.0616
     36 H12         2.6581   -1.3014    2.8117 H         1 <0>         0.0597
     37 H13         2.8795   -5.3671    0.3362 H         1 <0>         0.1006
     38 H14         1.3134   -5.5385   -0.4921 H         1 <0>         0.1009
     39 H15         3.3008   -5.6910   -2.3058 H         1 <0>         0.4318
     40 H16         3.5668   -3.0610   -3.5106 H         1 <0>         0.4273
     41 H17         4.3433   -2.1417   -4.5758 H         1 <0>         0.0759
     42 H18         5.9782   -2.1183   -5.2856 H         1 <0>         0.0780
     43 H19         3.3339   -2.3148   -6.8001 H         1 <0>         0.0690
     44 H20         4.4462   -0.9246   -6.7804 H         1 <0>         0.0808
     45 H21         4.7712   -2.2638   -8.8322 H         1 <0>         0.0711
     46 H22         6.2183   -2.3440   -7.7993 H         1 <0>         0.0689
     47 H23         6.7146   -4.4566   -6.4880 H         1 <0>         0.0722
     48 H24         5.4752   -5.7361   -6.4242 H         1 <0>         0.0966
     49 H25         5.4504   -4.3332   -9.9414 H         1 <0>         0.0770
     50 H26         6.8753   -4.5580   -8.8987 H         1 <0>         0.0749
     51 H27         5.9472   -6.7122   -8.0946 H         1 <0>         0.0972
     52 H28         4.5222   -6.4874   -9.1373 H         1 <0>         0.0956
     53 H29         5.7661   -8.7808   -9.8125 H         1 <0>         0.4023
     54 H30         6.7709   -8.6023  -11.1472 H         1 <0>         0.4014
@<TRIPOS>BOND
     1    1    6 1
     2    1    2 1
     3    1   26 1
     4    1   27 1
     5    2    3 1
     6    2   28 1
     7    2   29 1
     8    3    4 1
     9    3   30 1
    10    3   31 1
    11    4    5 1
    12    4    7 1
    13    4   32 1
    14    5    6 1
    15    5   33 1
    16    5   34 1
    17    6   35 1
    18    6   36 1
    19    7    8 1
    20    7   37 1
    21    7   38 1
    22    8    9 2
    23    8   10 am
    24   10   11 1
    25   10   39 1
    26   11   12 am
    27   11   40 1
    28   12   13 2
    29   12   14 am
    30   14   20 1
    31   14   15 1
    32   15   16 1
    33   15   41 1
    34   15   42 1
    35   16   17 1
    36   16   43 1
    37   16   44 1
    38   17   18 1
    39   17   45 1
    40   17   46 1
    41   18   19 1
    42   18   20 1
    43   18   21 1
    44   20   47 1
    45   20   48 1
    46   21   22 1
    47   21   49 1
    48   21   50 1
    49   22   23 1
    50   22   51 1
    51   22   52 1
    52   23   24 2
    53   23   25 am
    54   25   53 1
    55   25   54 1
@<TRIPOS>MOLECULE
ZINC11558162
   60    62     0     0     0
SMALL
USER_CHARGES
2-(4-acetylaminophenyl)sulfonylamino-N-[2-(2-furyl)-2-pyrrolidin-1-yl-ethyl]-propanamide
@<TRIPOS>ATOM
      1 C1         -5.9258    0.4687   -2.5455 C.3       1 <0>        -0.1735
      2 C2         -5.3709    1.8194   -3.0022 C.3       1 <0>         0.1414
      3 H1         -5.5081    2.5553   -2.2098 H         1 <0>         0.1138
      4 C3         -3.9023    1.6809   -3.3103 C.2       1 <0>         0.5204
      5 O1         -3.4908    1.9248   -4.4248 O.2       1 <0>        -0.5073
      6 N1         -3.0460    1.2859   -2.3473 N.am      1 <0>        -0.7272
      7 C4         -1.6183    1.1513   -2.6468 C.3       1 <0>         0.1016
      8 C5         -0.8951    0.5677   -1.4314 C.3       1 <0>         0.1294
      9 H2         -1.1055    1.1802   -0.5547 H         1 <0>         0.1618
     10 C6         -1.3764   -0.8396   -1.1883 C.2       1 <0>        -0.1035
     11 C7         -2.2827   -1.2128   -0.2670 C.2       1 <0>        -0.1343
     12 C8         -2.4361   -2.6131   -0.3873 C.2       1 <0>        -0.2100
     13 C9         -1.6084   -3.0130   -1.3693 C.2       1 <0>         0.0117
     14 O2         -0.9691   -1.9345   -1.8509 O.3       1 <0>        -0.1775
     15 C10         1.2948    0.0658   -0.4923 C.3       1 <0>        -0.0030
     16 C11         2.7315    0.5980   -0.6816 C.3       1 <0>        -0.1472
     17 C12         2.5817    1.8268   -1.6072 C.3       1 <0>        -0.1467
     18 C13         1.0689    1.9299   -1.8968 C.3       1 <0>        -0.0152
     19 N2         -6.0829    2.2584   -4.2049 N.pl3     1 <0>        -1.1014
     20 S1         -7.3785    3.2814   -4.0731 S.o2      1 <0>         2.6949
     21 O3         -7.8287    3.5390   -5.3961 O.2       1 <0>        -0.9435
     22 O4         -8.2269    2.7354   -3.0725 O.2       1 <0>        -0.9472
     23 C14        -6.7728    4.8103   -3.4405 C.ar      1 <0>        -0.7009
     24 C15        -6.7326    5.0245   -2.0750 C.ar      1 <0>        -0.0060
     25 C16        -6.2540    6.2200   -1.5758 C.ar      1 <0>        -0.1696
     26 C17        -5.8222    7.2114   -2.4472 C.ar      1 <0>         0.2084
     27 C18        -5.8688    6.9952   -3.8182 C.ar      1 <0>        -0.1441
     28 C19        -6.3441    5.7957   -4.3108 C.ar      1 <0>         0.0086
     29 N3         -5.3408    8.4254   -1.9448 N.am      1 <0>        -0.6806
     30 C20        -5.5412    9.5665   -2.6334 C.2       1 <0>         0.5108
     31 O5         -6.2137    9.5556   -3.6426 O.2       1 <0>        -0.5118
     32 C21        -4.9295   10.8559   -2.1494 C.3       1 <0>        -0.1724
     33 H3         -5.3961    0.1421   -1.6506 H         1 <0>         0.0715
     34 H4         -6.9881    0.5689   -2.3226 H         1 <0>         0.0949
     35 H5         -5.7886   -0.2671   -3.3378 H         1 <0>         0.0729
     36 H6         -3.3751    1.0908   -1.4559 H         1 <0>         0.4082
     37 H7         -1.2022    2.1311   -2.8813 H         1 <0>         0.0977
     38 H8         -1.4873    0.4870   -3.5011 H         1 <0>         0.0986
     39 H9         -2.7963   -0.5665    0.4293 H         1 <0>         0.1614
     40 H10        -3.0898   -3.2417    0.1992 H         1 <0>         0.1649
     41 H11        -1.4795   -4.0290   -1.7122 H         1 <0>         0.2187
     42 H12         0.8570    0.4697    0.4205 H         1 <0>         0.1331
     43 H13         1.2937   -1.0239   -0.4637 H         1 <0>         0.1362
     44 H14         3.1551    0.8941    0.2781 H         1 <0>         0.1131
     45 H15         3.3566   -0.1594   -1.1547 H         1 <0>         0.1013
     46 H16         3.1348    1.6721   -2.5336 H         1 <0>         0.1021
     47 H17         2.9329    2.7272   -1.1032 H         1 <0>         0.1133
     48 H18         0.8995    2.2438   -2.9268 H         1 <0>         0.1412
     49 H19         0.5941    2.6258   -1.2052 H         1 <0>         0.1355
     50 H20        -5.7954    1.9499   -5.0785 H         1 <0>         0.4291
     51 H21        -7.0724    4.2546   -1.3980 H         1 <0>         0.1451
     52 H22        -6.2190    6.3851   -0.5091 H         1 <0>         0.1382
     53 H23        -5.5334    7.7641   -4.4984 H         1 <0>         0.1463
     54 H24        -6.3806    5.6269   -5.3770 H         1 <0>         0.1461
     55 H25        -4.8630    8.4457   -1.1009 H         1 <0>         0.4160
     56 H26        -3.9405   10.9773   -2.5914 H         1 <0>         0.1020
     57 H27        -5.5640   11.6919   -2.4434 H         1 <0>         0.1030
     58 H28        -4.8414   10.8310   -1.0632 H         1 <0>         0.0854
     59 N4          0.5825    0.5707   -1.6717 N.4       1 <0>        -0.3918
     60 H29         0.7925   -0.0164   -2.4874 H         1 <0>         0.4357
@<TRIPOS>BOND
     1    1    2 1
     2    1   33 1
     3    1   34 1
     4    1   35 1
     5    2    3 1
     6    2    4 1
     7    2   19 1
     8    4    5 2
     9    4    6 am
    10    6    7 1
    11    6   36 1
    12    7    8 1
    13    7   37 1
    14    7   38 1
    15    8    9 1
    16    8   10 1
    17    8   59 1
    18   10   14 1
    19   10   11 2
    20   11   12 1
    21   11   39 1
    22   12   13 2
    23   12   40 1
    24   13   14 1
    25   13   41 1
    26   15   16 1
    27   15   42 1
    28   15   43 1
    29   15   59 1
    30   16   17 1
    31   16   44 1
    32   16   45 1
    33   17   18 1
    34   17   46 1
    35   17   47 1
    36   18   48 1
    37   18   49 1
    38   18   59 1
    39   19   20 1
    40   19   50 1
    41   20   21 2
    42   20   22 2
    43   20   23 1
    44   23   28 ar
    45   23   24 ar
    46   24   25 ar
    47   24   51 1
    48   25   26 ar
    49   25   52 1
    50   26   27 ar
    51   26   29 1
    52   27   28 ar
    53   27   53 1
    54   28   54 1
    55   29   30 am
    56   29   55 1
    57   30   31 2
    58   30   32 1
    59   32   56 1
    60   32   57 1
    61   32   58 1
    62   59   60 1
@<TRIPOS>MOLECULE
ZINC23857783
   70    73     0     0     0
SMALL
USER_CHARGES
N-(4-acetamidophenyl)-N'-[(2R)-2-(1-methylindolin-5-yl)-2-(4-methylpiperazin-1-yl)ethyl]oxamide
@<TRIPOS>ATOM
      1 C1         -8.0612   14.8617   -8.2817 C.3       1 <0>        -0.1731
      2 C2         -7.2574   14.2741   -7.1505 C.2       1 <0>         0.5121
      3 O1         -7.7293   13.3910   -6.4659 O.2       1 <0>        -0.5291
      4 N1         -6.0120   14.7260   -6.9030 N.am      1 <0>        -0.6869
      5 C3         -5.3029   14.2519   -5.7924 C.ar      1 <0>         0.1461
      6 C4         -5.9858   13.8615   -4.6476 C.ar      1 <0>        -0.1090
      7 C5         -5.2876   13.3889   -3.5550 C.ar      1 <0>        -0.1132
      8 C6         -3.9008   13.3139   -3.5962 C.ar      1 <0>         0.1164
      9 C7         -3.2176   13.7098   -4.7395 C.ar      1 <0>        -0.0970
     10 C8         -3.9166   14.1775   -5.8338 C.ar      1 <0>        -0.1325
     11 N2         -3.1928   12.8396   -2.4876 N.am      1 <0>        -0.6513
     12 C9         -1.9919   13.3676   -2.1787 C.2       1 <0>         0.5087
     13 O2         -1.4798   14.1840   -2.9168 O.2       1 <0>        -0.5085
     14 C10        -1.2912   12.9483   -0.9283 C.2       1 <0>         0.5175
     15 O3         -1.8032   12.1321   -0.1904 O.2       1 <0>        -0.5171
     16 N3         -0.0903   13.4763   -0.6194 N.am      1 <0>        -0.7110
     17 C11         0.5971   13.0650    0.6072 C.3       1 <0>         0.1311
     18 C12         1.8675   13.8991    0.7841 C.3       1 <0>         0.1310
     19 H1          2.5277   13.8015   -0.0903 H         1 <0>         0.0682
     20 C13         1.4950   15.3459    0.9812 C.ar      1 <0>        -0.1324
     21 C14         1.0675   15.7887    2.2198 C.ar      1 <0>        -0.0691
     22 C15         0.7276   17.1123    2.4055 C.ar      1 <0>        -0.1401
     23 C16         0.8025   18.0112    1.3426 C.ar      1 <0>         0.1129
     24 C17         1.2325   17.5562    0.1020 C.ar      1 <0>        -0.1354
     25 C18         1.5747   16.2322   -0.0775 C.ar      1 <0>        -0.0714
     26 C19         1.2292   18.7325   -0.8539 C.3       1 <0>        -0.0928
     27 C20         1.1495   19.9481    0.0980 C.3       1 <0>         0.0451
     28 N4          0.4987   19.3775    1.2973 N.pl3     1 <0>        -0.4752
     29 C21         0.9530   20.0584    2.5171 C.3       1 <0>         0.0135
     30 N5          2.6083   13.4198    1.9586 N.3       1 <0>        -0.5318
     31 C22         3.7566   14.2900    2.2481 C.3       1 <0>         0.0232
     32 C23         4.4532   13.8041    3.5213 C.3       1 <0>         0.0007
     33 N6          4.8845   12.4111    3.3395 N.4       1 <0>        -0.4027
     34 C24         3.7363   11.5409    3.0499 C.3       1 <0>         0.0013
     35 C25         3.0396   12.0267    1.7767 C.3       1 <0>         0.0169
     36 C26         5.6254   11.9318    4.5139 C.3       1 <0>        -0.0453
     37 H2         -7.4714   15.6431   -8.7833 H         1 <0>         0.0800
     38 H3         -8.9880   15.3006   -7.8836 H         1 <0>         0.1009
     39 H4         -8.3109   14.0703   -9.0038 H         1 <0>         0.1004
     40 H5         -5.5525   15.4673   -7.5734 H         1 <0>         0.4368
     41 H6         -7.0635   13.9236   -4.6141 H         1 <0>         0.1431
     42 H7         -5.8188   13.0812   -2.6664 H         1 <0>         0.1315
     43 H8         -2.1397   13.6513   -4.7719 H         1 <0>         0.1411
     44 H9         -3.3856   14.4852   -6.7224 H         1 <0>         0.1308
     45 H10        -3.6160   12.0355   -1.8676 H         1 <0>         0.4501
     46 H11         0.3737   14.2161   -1.2883 H         1 <0>         0.4367
     47 H12        -0.0673   13.2213    1.4699 H         1 <0>         0.0895
     48 H13         0.8642   12.0001    0.5384 H         1 <0>         0.0738
     49 H14         1.0034   15.0959    3.0459 H         1 <0>         0.1319
     50 H15         0.3990   17.4527    3.3763 H         1 <0>         0.1241
     51 H16         1.9057   15.8872   -1.0460 H         1 <0>         0.1217
     52 H17         2.1525   18.7217   -1.4518 H         1 <0>         0.0848
     53 H18         0.3587   18.6594   -1.5224 H         1 <0>         0.0928
     54 H19         2.1639   20.3219    0.3011 H         1 <0>         0.0660
     55 H20         0.5530   20.7437   -0.3724 H         1 <0>         0.1019
     56 H21         0.7023   21.1277    2.4551 H         1 <0>         0.0828
     57 H22         2.0422   19.9424    2.6178 H         1 <0>         0.0407
     58 H23         0.4546   19.6150    3.3918 H         1 <0>         0.0776
     59 H24         4.4638   14.2560    1.4062 H         1 <0>         0.0624
     60 H25         3.4069   15.3230    2.3917 H         1 <0>         0.1300
     61 H26         5.3298   14.4369    3.7239 H         1 <0>         0.1361
     62 H27         3.7536   13.8648    4.3680 H         1 <0>         0.1357
     63 H28         4.0861   10.5080    2.9062 H         1 <0>         0.1375
     64 H29         3.0290   11.5747    3.8917 H         1 <0>         0.1366
     65 H30         2.1624   11.3948    1.5736 H         1 <0>         0.1283
     66 H31         3.7386   11.9669    0.9294 H         1 <0>         0.0647
     67 H32         5.9355   10.8890    4.3513 H         1 <0>         0.1247
     68 H33         4.9798   11.9880    5.4027 H         1 <0>         0.1202
     69 H34         6.5156   12.5595    4.6671 H         1 <0>         0.1243
     70 H35         5.5640   12.3759    2.4752 H         1 <0>         0.4405
@<TRIPOS>BOND
     1    1    2 1
     2    1   37 1
     3    1   38 1
     4    1   39 1
     5    2    3 2
     6    2    4 am
     7    4    5 1
     8    4   40 1
     9    5   10 ar
    10    5    6 ar
    11    6    7 ar
    12    6   41 1
    13    7    8 ar
    14    7   42 1
    15    8    9 ar
    16    8   11 1
    17    9   10 ar
    18    9   43 1
    19   10   44 1
    20   11   12 am
    21   11   45 1
    22   12   13 2
    23   12   14 1
    24   14   15 2
    25   14   16 am
    26   16   17 1
    27   16   46 1
    28   17   18 1
    29   17   47 1
    30   17   48 1
    31   18   19 1
    32   18   20 1
    33   18   30 1
    34   20   25 ar
    35   20   21 ar
    36   21   22 ar
    37   21   49 1
    38   22   23 ar
    39   22   50 1
    40   23   28 1
    41   23   24 ar
    42   24   25 ar
    43   24   26 1
    44   25   51 1
    45   26   27 1
    46   26   52 1
    47   26   53 1
    48   27   28 1
    49   27   54 1
    50   27   55 1
    51   28   29 1
    52   29   56 1
    53   29   57 1
    54   29   58 1
    55   30   35 1
    56   30   31 1
    57   31   32 1
    58   31   59 1
    59   31   60 1
    60   32   33 1
    61   32   61 1
    62   32   62 1
    63   33   34 1
    64   33   36 1
    65   33   70 1
    66   34   35 1
    67   34   63 1
    68   34   64 1
    69   35   65 1
    70   35   66 1
    71   36   67 1
    72   36   68 1
    73   36   69 1
@<TRIPOS>MOLECULE
ZINC09833696
   69    71     0     0     0
SMALL
USER_CHARGES

@<TRIPOS>ATOM
      1 C1          1.4676    0.7354   -1.7384 C.3       1 <0>        -0.1545
      2 C2          1.3986   -0.7851   -1.5830 C.3       1 <0>        -0.1048
      3 C3          2.1909   -1.4516   -2.7114 C.3       1 <0>        -0.1434
      4 C4          2.1843   -2.9679   -2.5052 C.3       1 <0>        -0.0063
      5 N1          2.8019   -3.2924   -1.2137 N.4       1 <0>        -0.3822
      6 C5          2.0068   -2.7163   -0.1227 C.3       1 <0>        -0.0123
      7 C6          2.0065   -1.1904   -0.2372 C.3       1 <0>        -0.1428
      8 C7          2.8638   -4.7515   -1.0551 C.3       1 <0>        -0.0060
      9 C8          3.6183   -5.0931    0.2314 C.3       1 <0>        -0.1635
     10 C9          3.6827   -6.6127    0.3966 C.3       1 <0>         0.1240
     11 N2          4.4051   -6.9398    1.6284 N.am      1 <0>        -0.7347
     12 C10         4.5861   -8.2278    1.9817 C.2       1 <0>         0.5647
     13 O1          4.1499   -9.1180    1.2784 O.2       1 <0>        -0.5229
     14 C11         5.3152   -8.5579    3.2248 C.ar      1 <0>        -0.1372
     15 C12         5.8123   -7.5379    4.0377 C.ar      1 <0>        -0.0882
     16 C13         6.4914   -7.8528    5.1966 C.ar      1 <0>        -0.1089
     17 C14         6.6804   -9.1761    5.5535 C.ar      1 <0>        -0.0664
     18 C15         6.1905  -10.1919    4.7519 C.ar      1 <0>        -0.1031
     19 C16         5.5043   -9.8907    3.5936 C.ar      1 <0>        -0.0553
     20 C17         7.4235   -9.5125    6.8206 C.3       1 <0>         0.1502
     21 N3          6.4753   -9.6019    7.9338 N.pl3     1 <0>        -1.1145
     22 S1          6.9343  -10.3123    9.3575 S.o2      1 <0>         2.6962
     23 O2          5.8201  -10.2213   10.2346 O.2       1 <0>        -0.9533
     24 O3          7.5359  -11.5537    9.0164 O.2       1 <0>        -0.9511
     25 C18         8.2061   -9.3107   10.0532 C.ar      1 <0>        -0.6974
     26 C19         9.5292   -9.5560    9.7350 C.ar      1 <0>        -0.0003
     27 C20        10.5284   -8.7727   10.2787 C.ar      1 <0>        -0.1439
     28 C21        10.2031   -7.7376   11.1454 C.ar      1 <0>         0.2066
     29 C22         8.8732   -7.4935   11.4626 C.ar      1 <0>        -0.1683
     30 C23         7.8784   -8.2774   10.9118 C.ar      1 <0>         0.0038
     31 N4         11.2130   -6.9425   11.6983 N.am      1 <0>        -0.6787
     32 C24        12.3268   -6.6769   10.9873 C.2       1 <0>         0.5135
     33 O4         12.4131   -7.0459    9.8351 O.2       1 <0>        -0.5196
     34 C25        13.4648   -5.9215   11.6239 C.3       1 <0>        -0.1716
     35 H1          2.5081    1.0579   -1.6985 H         1 <0>         0.0619
     36 H2          1.0347    1.0228   -2.6966 H         1 <0>         0.0678
     37 H3          0.9093    1.2089   -0.9308 H         1 <0>         0.0675
     38 H4          0.3587   -1.1090   -1.6256 H         1 <0>         0.0887
     39 H5          1.7304   -1.2127   -3.6699 H         1 <0>         0.1131
     40 H6          3.2181   -1.0872   -2.6994 H         1 <0>         0.0883
     41 H7          1.1568   -3.3313   -2.5176 H         1 <0>         0.1294
     42 H8          2.7474   -3.4456   -3.3069 H         1 <0>         0.1316
     43 H9          0.9830   -3.0851   -0.1858 H         1 <0>         0.1297
     44 H10         2.4388   -3.0083    0.8345 H         1 <0>         0.1306
     45 H11         3.0299   -0.8205   -0.1739 H         1 <0>         0.0880
     46 H12         1.4142   -0.7647    0.5728 H         1 <0>         0.1122
     47 H13         1.8524   -5.1543   -1.0010 H         1 <0>         0.1346
     48 H14         3.3835   -5.1880   -1.9080 H         1 <0>         0.1364
     49 H15         4.6297   -4.6902    0.1772 H         1 <0>         0.0952
     50 H16         3.0985   -4.6566    1.0842 H         1 <0>         0.0949
     51 H17         2.6713   -7.0155    0.4507 H         1 <0>         0.0801
     52 H18         4.2025   -7.0492   -0.4563 H         1 <0>         0.0804
     53 H19         4.7533   -6.2294    2.1897 H         1 <0>         0.4025
     54 H20         5.6661   -6.5046    3.7599 H         1 <0>         0.1242
     55 H21         6.8765   -7.0645    5.8265 H         1 <0>         0.1344
     56 H22         6.3417  -11.2229    5.0360 H         1 <0>         0.1400
     57 H23         5.1182  -10.6844    2.9713 H         1 <0>         0.1414
     58 H24         7.9333  -10.4684    6.6999 H         1 <0>         0.0965
     59 H25         8.1567   -8.7335    7.0296 H         1 <0>         0.0810
     60 H26         5.5786   -9.2449    7.8369 H         1 <0>         0.4205
     61 H27         9.7816  -10.3612    9.0610 H         1 <0>         0.1449
     62 H28        11.5617   -8.9653   10.0304 H         1 <0>         0.1452
     63 H29         8.6170   -6.6895   12.1366 H         1 <0>         0.1379
     64 H30         6.8438   -8.0855   11.1548 H         1 <0>         0.1453
     65 H31        11.1115   -6.5824   12.5932 H         1 <0>         0.4177
     66 H32        13.2067   -5.6758   12.6540 H         1 <0>         0.0816
     67 H33        14.3628   -6.5393   11.6118 H         1 <0>         0.1043
     68 H34        13.6482   -5.0031   11.0663 H         1 <0>         0.1022
     69 H35         3.7364   -2.9130   -1.1842 H         1 <0>         0.4224
@<TRIPOS>BOND
     1    1    2 1
     2    1   35 1
     3    1   36 1
     4    1   37 1
     5    2    7 1
     6    2    3 1
     7    2   38 1
     8    3    4 1
     9    3   39 1
    10    3   40 1
    11    4    5 1
    12    4   41 1
    13    4   42 1
    14    5    6 1
    15    5    8 1
    16    5   69 1
    17    6    7 1
    18    6   43 1
    19    6   44 1
    20    7   45 1
    21    7   46 1
    22    8    9 1
    23    8   47 1
    24    8   48 1
    25    9   10 1
    26    9   49 1
    27    9   50 1
    28   10   11 1
    29   10   51 1
    30   10   52 1
    31   11   12 am
    32   11   53 1
    33   12   13 2
    34   12   14 1
    35   14   19 ar
    36   14   15 ar
    37   15   16 ar
    38   15   54 1
    39   16   17 ar
    40   16   55 1
    41   17   18 ar
    42   17   20 1
    43   18   19 ar
    44   18   56 1
    45   19   57 1
    46   20   21 1
    47   20   58 1
    48   20   59 1
    49   21   22 1
    50   21   60 1
    51   22   23 2
    52   22   24 2
    53   22   25 1
    54   25   30 ar
    55   25   26 ar
    56   26   27 ar
    57   26   61 1
    58   27   28 ar
    59   27   62 1
    60   28   29 ar
    61   28   31 1
    62   29   30 ar
    63   29   63 1
    64   30   64 1
    65   31   32 am
    66   31   65 1
    67   32   33 2
    68   32   34 1
    69   34   66 1
    70   34   67 1
    71   34   68 1
@<TRIPOS>MOLECULE
ZINC41026207
   62    66     0     0     0
SMALL
USER_CHARGES

@<TRIPOS>ATOM
      1 C1         -0.0187    1.5258    0.0104 C.3       1 <0>        -0.1506
      2 C2          0.0021   -0.0041    0.0020 C.3       1 <0>        -0.0896
      3 H1          0.5124   -0.3548   -0.8950 H         1 <0>         0.0756
      4 C3         -1.4339   -0.5326    0.0102 C.3       1 <0>        -0.1158
      5 C4         -1.4350   -2.0355   -0.2957 C.3       1 <0>        -0.0536
      6 C5         -0.4424   -2.7044    0.6242 C.2       1 <0>         0.1442
      7 C6          0.5544   -2.0050    1.3308 C.2       1 <0>        -0.2879
      8 C7          1.2614   -2.8992    2.0566 C.2       1 <0>         0.3225
      9 O1          0.7406   -4.1185    1.8224 O.3       1 <0>        -0.0696
     10 N1         -0.3359   -3.9653    0.9118 N.2       1 <0>        -0.3310
     11 N2          2.3287   -2.6131    2.8912 N.pl3     1 <0>        -0.5927
     12 C8          2.9631   -3.6329    3.5771 C.ar      1 <0>         0.5347
     13 C9          4.0468   -3.3590    4.4348 C.ar      1 <0>        -0.3437
     14 C10         4.7329   -2.1870    4.8217 C.2       1 <0>         0.1177
     15 N3          5.6769   -2.5166    5.6570 N.2       1 <0>        -0.2358
     16 N4          5.6635   -3.9021    5.8620 N.pl3     1 <0>        -0.3244
     17 C11         4.6562   -4.4353    5.1087 C.ar      1 <0>         0.4139
     18 N5          4.1884   -5.6662    4.9119 N.ar      1 <0>        -0.5955
     19 C12         3.1684   -5.8768    4.0973 C.ar      1 <0>         0.6431
     20 N6          2.5612   -4.8911    3.4465 N.ar      1 <0>        -0.6070
     21 N7          2.7133   -7.1716    3.9203 N.pl3     1 <0>        -0.6932
     22 C13         1.5850   -7.4354    3.0240 C.3       1 <0>         0.1165
     23 C14         1.2859   -8.9358    3.0085 C.3       1 <0>        -0.0231
     24 N8          0.1545   -9.2003    2.1097 N.4       1 <0>        -0.5023
     25 C15        -0.1327  -10.6409    2.0948 C.3       1 <0>        -0.0021
     26 C16        -1.3111  -10.9164    1.1587 C.3       1 <0>         0.0440
     27 O2         -0.9403  -10.5910   -0.1824 O.3       1 <0>        -0.5814
     28 C17         6.5330   -4.6174    6.6949 C.ar      1 <0>         0.1459
     29 C18         6.0755   -5.7325    7.3848 C.ar      1 <0>        -0.1115
     30 C19         6.9354   -6.4357    8.2054 C.ar      1 <0>        -0.1011
     31 C20         8.2506   -6.0305    8.3406 C.ar      1 <0>        -0.1142
     32 C21         8.7092   -4.9206    7.6550 C.ar      1 <0>        -0.1007
     33 C22         7.8558   -4.2164    6.8284 C.ar      1 <0>        -0.1075
     34 C23         0.7465   -0.5110    1.2436 C.3       1 <0>        -0.0423
     35 H2          1.0039    1.9031    0.0027 H         1 <0>         0.0586
     36 H3         -0.5459    1.8868   -0.8726 H         1 <0>         0.0607
     37 H4         -0.5289    1.8773    0.9072 H         1 <0>         0.0582
     38 H5         -1.8774   -0.3620    0.9911 H         1 <0>         0.0713
     39 H6         -2.0174   -0.0083   -0.7466 H         1 <0>         0.0820
     40 H7         -2.4302   -2.4452   -0.1232 H         1 <0>         0.0936
     41 H8         -1.1436   -2.1999   -1.3331 H         1 <0>         0.0979
     42 H9          2.6315   -1.6974    2.9947 H         1 <0>         0.4484
     43 H10         4.5124   -1.1858    4.4820 H         1 <0>         0.2037
     44 H11         3.1415   -7.9045    4.3898 H         1 <0>         0.4229
     45 H12         0.7071   -6.8935    3.3758 H         1 <0>         0.0931
     46 H13         1.8364   -7.1046    2.0162 H         1 <0>         0.0932
     47 H14         2.1638   -9.4777    2.6567 H         1 <0>         0.1397
     48 H15         1.0345   -9.2666    4.0162 H         1 <0>         0.1396
     49 H16        -0.6582   -8.6987    2.4354 H         1 <0>         0.4306
     50 H17         0.7452  -11.1828    1.7430 H         1 <0>         0.1400
     51 H18        -0.3841  -10.9717    3.1025 H         1 <0>         0.1459
     52 H19        -1.5813  -11.9709    1.2153 H         1 <0>         0.0972
     53 H20        -2.1634  -10.3064    1.4582 H         1 <0>         0.0739
     54 H21        -1.6409  -10.7413   -0.8317 H         1 <0>         0.4108
     55 H22         5.0484   -6.0492    7.2799 H         1 <0>         0.1321
     56 H23         6.5802   -7.3028    8.7424 H         1 <0>         0.1334
     57 H24         8.9210   -6.5819    8.9832 H         1 <0>         0.1323
     58 H25         9.7370   -4.6066    7.7627 H         1 <0>         0.1359
     59 H26         8.2158   -3.3525    6.2895 H         1 <0>         0.1344
     60 H27         1.8085   -0.2822    1.1547 H         1 <0>         0.0725
     61 H28         0.3404   -0.0346    2.1360 H         1 <0>         0.0772
     62 H29         0.3872   -8.8941    1.1769 H         1 <0>         0.4392
@<TRIPOS>BOND
     1    1    2 1
     2    1   35 1
     3    1   36 1
     4    1   37 1
     5    2    3 1
     6    2   34 1
     7    2    4 1
     8    4    5 1
     9    4   38 1
    10    4   39 1
    11    5    6 1
    12    5   40 1
    13    5   41 1
    14    6   10 2
    15    6    7 1
    16    7    8 2
    17    7   34 1
    18    8    9 1
    19    8   11 1
    20    9   10 1
    21   11   12 1
    22   11   42 1
    23   12   20 ar
    24   12   13 ar
    25   13   17 ar
    26   13   14 1
    27   14   15 2
    28   14   43 1
    29   15   16 1
    30   16   17 1
    31   16   28 1
    32   17   18 ar
    33   18   19 ar
    34   19   20 ar
    35   19   21 1
    36   21   22 1
    37   21   44 1
    38   22   23 1
    39   22   45 1
    40   22   46 1
    41   23   24 1
    42   23   47 1
    43   23   48 1
    44   24   25 1
    45   24   49 1
    46   24   62 1
    47   25   26 1
    48   25   50 1
    49   25   51 1
    50   26   27 1
    51   26   52 1
    52   26   53 1
    53   27   54 1
    54   28   33 ar
    55   28   29 ar
    56   29   30 ar
    57   29   55 1
    58   30   31 ar
    59   30   56 1
    60   31   32 ar
    61   31   57 1
    62   32   33 ar
    63   32   58 1
    64   33   59 1
    65   34   60 1
    66   34   61 1
@<TRIPOS>MOLECULE
ZINC64461287
   61    65     0     0     0
SMALL
USER_CHARGES

@<TRIPOS>ATOM
      1 C1         -0.0187    1.5258    0.0104 C.3       1 <0>        -0.1486
      2 C2          0.0021   -0.0041    0.0020 C.3       1 <0>        -0.1377
      3 C3          0.7421   -0.5109    1.2415 C.3       1 <0>         0.1244
      4 N1          0.7619   -1.9757    1.2335 N.am      1 <0>        -0.6140
      5 C4         -0.3233   -2.7141    1.8687 C.3       1 <0>         0.4922
      6 H1         -0.0635   -2.9320    2.9046 H         1 <0>         0.0671
      7 N2         -1.6089   -1.9931    1.8184 N.3       1 <0>        -0.4847
      8 N3         -2.6059   -3.0823    1.8475 N.3       1 <0>        -0.4695
      9 C5         -2.0049   -4.1257    0.9717 C.3       1 <0>         0.3057
     10 H2         -2.2852   -3.9546   -0.0676 H         1 <0>         0.1047
     11 N4         -0.5649   -3.9778    1.1373 N.pl3     1 <0>        -0.6372
     12 C6          0.5013   -4.7453    0.6674 C.2       1 <0>         0.2478
     13 C7          0.6123   -6.0875    0.3990 C.2       1 <0>        -0.2115
     14 C8          1.7905   -6.5806   -0.0607 C.2       1 <0>        -0.2052
     15 S1          2.8041   -5.2389   -0.1489 S.3       1 <0>         0.3263
     16 C9          1.6826   -4.0076    0.4229 C.2       1 <0>        -0.3752
     17 C10         1.7903   -2.6307    0.6283 C.2       1 <0>         0.6217
     18 O1          2.7882   -2.0279    0.2757 O.2       1 <0>        -0.5262
     19 C11        -2.4537   -5.5181    1.4197 C.3       1 <0>        -0.1261
     20 C12        -3.9581   -5.6690    1.1850 C.3       1 <0>        -0.1356
     21 C13        -4.4002   -7.0405    1.6263 C.2       1 <0>         0.5188
     22 O2         -3.5917   -7.8204    2.0834 O.2       1 <0>        -0.5298
     23 N5         -5.6941   -7.4004    1.5129 N.am      1 <0>        -0.7370
     24 C14        -6.1238   -8.7336    1.9418 C.3       1 <0>         0.1255
     25 C15        -7.6282   -8.8845    1.7072 C.3       1 <0>        -0.1050
     26 C16        -8.0703  -10.2560    2.1484 C.2       1 <0>         0.0697
     27 C17        -8.5948  -10.5944    3.3483 C.ar      1 <0>        -0.1668
     28 C18        -8.8979   -9.8170    4.5559 C.ar      1 <0>        -0.0132
     29 C19        -9.4310  -10.4489    5.6262 C.ar      1 <0>        -0.1497
     30 C20        -9.7003  -11.8244    5.6113 C.ar      1 <0>         0.0549
     31 C21        -9.4493  -12.6051    4.5391 C.ar      1 <0>        -0.2097
     32 C22        -8.8889  -12.0452    3.3579 C.ar      1 <0>         0.3279
     33 N6         -8.5592  -12.5828    2.2086 N.pl3     1 <0>        -0.5847
     34 C23        -8.0235  -11.5313    1.3368 C.3       1 <0>         0.0604
     35 H3          1.0039    1.9031    0.0027 H         1 <0>         0.0547
     36 H4         -0.5459    1.8868   -0.8726 H         1 <0>         0.0570
     37 H5         -0.5289    1.8773    0.9072 H         1 <0>         0.0549
     38 H6         -1.0205   -0.3814    0.0098 H         1 <0>         0.0797
     39 H7          0.5123   -0.3556   -0.8948 H         1 <0>         0.0581
     40 H8          1.7647   -0.1336    1.2338 H         1 <0>         0.0890
     41 H9          0.2319   -0.1594    2.1383 H         1 <0>         0.0732
     42 H10        -1.7140   -1.3853    2.6169 H         1 <0>         0.3659
     43 H11        -2.7355   -3.4289    2.7862 H         1 <0>         0.3239
     44 H12        -0.2305   -6.7452    0.5527 H         1 <0>         0.1385
     45 H13         2.0252   -7.6041   -0.3129 H         1 <0>         0.1968
     46 H14        -1.9187   -6.2745    0.8455 H         1 <0>         0.0902
     47 H15        -2.2368   -5.6461    2.4802 H         1 <0>         0.0797
     48 H16        -4.4931   -4.9126    1.7592 H         1 <0>         0.1076
     49 H17        -4.1750   -5.5410    0.1245 H         1 <0>         0.1043
     50 H18        -6.3407   -6.7766    1.1473 H         1 <0>         0.4080
     51 H19        -5.5888   -9.4900    1.3676 H         1 <0>         0.0774
     52 H20        -5.9069   -8.8616    3.0023 H         1 <0>         0.0782
     53 H21        -8.1632   -8.1281    2.2813 H         1 <0>         0.1165
     54 H22        -7.8451   -8.7566    0.6467 H         1 <0>         0.1194
     55 H23        -8.6977   -8.7563    4.5894 H         1 <0>         0.1605
     56 H24        -9.6548   -9.8789    6.5158 H         1 <0>         0.1584
     57 H25       -10.1258  -12.2784    6.4941 H         1 <0>         0.1615
     58 H26        -9.6749  -13.6605    4.5785 H         1 <0>         0.1611
     59 H27        -8.6397  -11.4309    0.4434 H         1 <0>         0.1755
     60 H28        -6.9949  -11.7632    1.0604 H         1 <0>         0.1742
     61 H29        -8.6568  -13.5186    1.9726 H         1 <0>         0.4564
@<TRIPOS>BOND
     1    1    2 1
     2    1   35 1
     3    1   36 1
     4    1   37 1
     5    2    3 1
     6    2   38 1
     7    2   39 1
     8    3    4 1
     9    3   40 1
    10    3   41 1
    11    4   17 am
    12    4    5 1
    13    5    6 1
    14    5   11 1
    15    5    7 1
    16    7    8 1
    17    7   42 1
    18    8    9 1
    19    8   43 1
    20    9   10 1
    21    9   11 1
    22    9   19 1
    23   11   12 1
    24   12   16 2
    25   12   13 1
    26   13   14 2
    27   13   44 1
    28   14   15 1
    29   14   45 1
    30   15   16 1
    31   16   17 1
    32   17   18 2
    33   19   20 1
    34   19   46 1
    35   19   47 1
    36   20   21 1
    37   20   48 1
    38   20   49 1
    39   21   22 2
    40   21   23 am
    41   23   24 1
    42   23   50 1
    43   24   25 1
    44   24   51 1
    45   24   52 1
    46   25   26 1
    47   25   53 1
    48   25   54 1
    49   26   34 1
    50   26   27 2
    51   27   32 ar
    52   27   28 ar
    53   28   29 ar
    54   28   55 1
    55   29   30 ar
    56   29   56 1
    57   30   31 ar
    58   30   57 1
    59   31   32 ar
    60   31   58 1
    61   32   33 2
    62   33   34 1
    63   33   61 1
    64   34   59 1
    65   34   60 1
@<TRIPOS>MOLECULE
ZINC40480605
   40    40     0     0     0
SMALL
USER_CHARGES

@<TRIPOS>ATOM
      1 C1         -3.0841   -1.5744   -1.2695 C.3       1 <0>        -0.1561
      2 C2         -1.6734   -1.6682   -0.6847 C.3       1 <0>        -0.1369
      3 C3         -0.6691   -1.9137   -1.8126 C.3       1 <0>        -0.1394
      4 C4          0.7416   -2.0076   -1.2278 C.3       1 <0>         0.0516
      5 C5          1.0860   -0.6987   -0.5142 C.3       1 <0>        -0.1625
      6 C6          1.7309   -2.2494   -2.3386 C.2       1 <0>         0.5158
      7 O1          2.3894   -1.3293   -2.7751 O.2       1 <0>        -0.4745
      8 N1          1.8837   -3.4882   -2.8470 N.am      1 <0>        -0.5777
      9 C7          1.0688   -4.6664   -2.4988 C.3       1 <0>         0.0413
     10 C8          1.1907   -5.6085   -3.7225 C.3       1 <0>         0.0806
     11 H1          1.0182   -6.6458   -3.4356 H         1 <0>         0.0931
     12 C9          2.6680   -5.3856   -4.1412 C.3       1 <0>        -0.1078
     13 C10         2.8866   -3.8870   -3.8454 C.3       1 <0>         0.0694
     14 H2          2.7544   -3.3041   -4.7569 H         1 <0>         0.0835
     15 C11         4.2725   -3.6731   -3.2934 C.2       1 <0>         0.4974
     16 O2          4.4722   -3.7667   -2.0943 O.co2     1 <0>        -0.6957
     17 O3          5.1939   -3.4064   -4.0459 O.co2     1 <0>        -0.6710
     18 O4          0.2968   -5.2127   -4.7647 O.3       1 <0>        -0.3660
     19 C12        -0.9819   -5.8479   -4.7060 C.3       1 <0>         0.0254
     20 N2          0.8012   -3.1186   -0.2686 N.4       1 <0>        -0.6370
     21 H3         -3.1283   -0.7500   -1.9813 H         1 <0>         0.0653
     22 H4         -3.3294   -2.5068   -1.7779 H         1 <0>         0.0596
     23 H5         -3.7996   -1.3995   -0.4661 H         1 <0>         0.0661
     24 H6         -1.4281   -0.7357   -0.1764 H         1 <0>         0.0853
     25 H7         -1.6292   -2.4926    0.0270 H         1 <0>         0.0576
     26 H8         -0.9144   -2.8462   -2.3209 H         1 <0>         0.0911
     27 H9         -0.7133   -1.0894   -2.5243 H         1 <0>         0.1188
     28 H10         0.3705   -0.5238    0.2893 H         1 <0>         0.0891
     29 H11         2.0910   -0.7655   -0.0976 H         1 <0>         0.0903
     30 H12         1.0418    0.1257   -1.2259 H         1 <0>         0.1150
     31 H13         1.4644   -5.1509   -1.6061 H         1 <0>         0.0828
     32 H14         0.0293   -4.3767   -2.3452 H         1 <0>         0.0754
     33 H15         3.3364   -6.0025   -3.5405 H         1 <0>         0.0959
     34 H16         2.8029   -5.5904   -5.2033 H         1 <0>         0.0968
     35 H17        -1.6013   -5.4944   -5.5304 H         1 <0>         0.0906
     36 H18        -0.8552   -6.9277   -4.7838 H         1 <0>         0.0481
     37 H19        -1.4647   -5.6059   -3.7592 H         1 <0>         0.0362
     38 H20         0.4009   -3.9453   -0.6862 H         1 <0>         0.4262
     39 H21         1.7628   -3.2985   -0.0215 H         1 <0>         0.4461
     40 H22         0.2808   -2.8751    0.5609 H         1 <0>         0.4304
@<TRIPOS>BOND
     1    1    2 1
     2    1   21 1
     3    1   22 1
     4    1   23 1
     5    2    3 1
     6    2   24 1
     7    2   25 1
     8    3    4 1
     9    3   26 1
    10    3   27 1
    11    4    5 1
    12    4    6 1
    13    4   20 1
    14    5   28 1
    15    5   29 1
    16    5   30 1
    17    6    7 2
    18    6    8 am
    19    8   13 1
    20    8    9 1
    21    9   10 1
    22    9   31 1
    23    9   32 1
    24   10   11 1
    25   10   12 1
    26   10   18 1
    27   12   13 1
    28   12   33 1
    29   12   34 1
    30   13   14 1
    31   13   15 1
    32   15   16 2
    33   15   17 1
    34   18   19 1
    35   19   35 1
    36   19   36 1
    37   19   37 1
    38   20   38 1
    39   20   39 1
    40   20   40 1
@<TRIPOS>MOLECULE
ZINC42709424
   38    38     0     0     0
SMALL
USER_CHARGES

@<TRIPOS>ATOM
      1 C1          2.3907   -0.9553    2.0886 C.3       1 <0>        -0.1077
      2 C2          3.0933    0.3496    1.7084 C.3       1 <0>        -0.1728
      3 H1          3.7641    0.6490    2.5136 H         1 <0>         0.0585
      4 C3          2.0485    1.4440    1.4816 C.3       1 <0>         0.1563
      5 N1          1.3579    1.7286    2.7418 N.am      1 <0>        -0.6254
      6 C4          1.8794    2.7555    3.6473 C.3       1 <0>         0.0675
      7 C5          0.2427    1.0457    3.0683 C.2       1 <0>         0.7035
      8 O1         -0.0748    0.0598    2.4314 O.2       1 <0>        -0.5450
      9 N2         -0.5205    1.4556    4.1007 N.am      1 <0>        -0.6326
     10 C6         -1.4802    0.5397    4.7322 C.3       1 <0>         0.1203
     11 C7         -2.8610    1.2030    4.7431 C.3       1 <0>        -0.1308
     12 C8         -2.7596    2.5717    5.4202 C.3       1 <0>        -0.1385
     13 C9         -1.8011    3.4645    4.6287 C.3       1 <0>         0.0022
     14 H2         -2.1624    3.5691    3.6057 H         1 <0>         0.1455
     15 C10        -0.4043    2.8251    4.6201 C.3       1 <0>         0.0644
     16 N3         -1.7294    4.7885    5.2611 N.4       1 <0>        -0.6316
     17 C11         3.8869    0.1429    0.4441 C.2       1 <0>         0.4986
     18 O2          3.6397    0.8092   -0.5466 O.co2     1 <0>        -0.6992
     19 O3          4.7761   -0.6906    0.4119 O.co2     1 <0>        -0.6917
     20 H3          1.7198   -1.2547    1.2833 H         1 <0>         0.0496
     21 H4          3.1350   -1.7350    2.2502 H         1 <0>         0.0462
     22 H5          1.8167   -0.8059    3.0030 H         1 <0>         0.0353
     23 H6          2.5413    2.3485    1.1250 H         1 <0>         0.0812
     24 H7          1.3251    1.1075    0.7388 H         1 <0>         0.0837
     25 H8          1.5020    3.7323    3.3447 H         1 <0>         0.0536
     26 H9          1.5556    2.5404    4.6656 H         1 <0>         0.0710
     27 H10         2.9686    2.7578    3.6051 H         1 <0>         0.0805
     28 H11        -1.5259   -0.3899    4.1647 H         1 <0>         0.1078
     29 H12        -1.1671    0.3307    5.7551 H         1 <0>         0.0703
     30 H13        -3.2123    1.3288    3.7190 H         1 <0>         0.0809
     31 H14        -3.5617    0.5756    5.2940 H         1 <0>         0.0966
     32 H15        -3.7456    3.0354    5.4513 H         1 <0>         0.0881
     33 H16        -2.3848    2.4475    6.4361 H         1 <0>         0.0881
     34 H17        -0.0053    2.7987    5.6341 H         1 <0>         0.0850
     35 H18         0.2602    3.4040    3.9787 H         1 <0>         0.1339
     36 H19        -1.3939    4.6914    6.2077 H         1 <0>         0.4326
     37 H20        -1.0973    5.3768    4.7390 H         1 <0>         0.4371
     38 H21        -2.6475    5.2068    5.2708 H         1 <0>         0.4368
@<TRIPOS>BOND
     1    1    2 1
     2    1   20 1
     3    1   21 1
     4    1   22 1
     5    2    3 1
     6    2    4 1
     7    2   17 1
     8    4    5 1
     9    4   23 1
    10    4   24 1
    11    5    6 1
    12    5    7 am
    13    6   25 1
    14    6   26 1
    15    6   27 1
    16    7    8 2
    17    7    9 am
    18    9   15 1
    19    9   10 1
    20   10   11 1
    21   10   28 1
    22   10   29 1
    23   11   12 1
    24   11   30 1
    25   11   31 1
    26   12   13 1
    27   12   32 1
    28   12   33 1
    29   13   14 1
    30   13   15 1
    31   13   16 1
    32   15   34 1
    33   15   35 1
    34   16   36 1
    35   16   37 1
    36   16   38 1
    37   17   18 2
    38   17   19 1
@<TRIPOS>MOLECULE
ZINC48837337
   40    42     0     0     0
SMALL
USER_CHARGES

@<TRIPOS>ATOM
      1 C1          0.7149   -4.2530   -0.9914 C.ar      1 <0>        -0.1479
      2 C2          2.0675   -4.5369   -0.9413 C.ar      1 <0>        -0.0968
      3 C3          2.9709   -3.5527   -0.6020 C.ar      1 <0>        -0.1372
      4 C4          2.5281   -2.2620   -0.3063 C.ar      1 <0>         0.1735
      5 C5          1.1710   -1.9876   -0.3598 C.ar      1 <0>        -0.1332
      6 C6          0.2690   -2.9775   -0.7005 C.ar      1 <0>        -0.0785
      7 C7          0.9593   -0.5340   -0.0009 C.3       1 <0>        -0.0691
      8 C8          2.3723    0.0076    0.2702 C.3       1 <0>         0.0317
      9 H1          2.6094    0.8113   -0.4270 H         1 <0>         0.0953
     10 N1          3.2683   -1.1320    0.0560 N.am      1 <0>        -0.5322
     11 C9          4.6090   -1.0964    0.1883 C.2       1 <0>         0.7413
     12 O1          5.2451   -2.1323    0.2144 O.2       1 <0>        -0.5825
     13 N2          5.2448    0.0875    0.2916 N.am      1 <0>        -0.6103
     14 C10         4.4832    1.3381    0.4134 C.3       1 <0>         0.0190
     15 C11         4.9738    2.0956    1.6512 C.3       1 <0>        -0.1226
     16 C12         6.4891    2.2890    1.5587 C.3       1 <0>        -0.1376
     17 C13         7.1782    0.9230    1.5237 C.3       1 <0>         0.0045
     18 H2          6.9179    0.3611    2.4207 H         1 <0>         0.1485
     19 C14         6.7126    0.1516    0.2906 C.3       1 <0>         0.1171
     20 N3          8.6342    1.1097    1.4674 N.4       1 <0>        -0.6299
     21 C15         2.4799    0.5001    1.6904 C.2       1 <0>         0.4966
     22 O2          2.9975   -0.2027    2.5417 O.co2     1 <0>        -0.6636
     23 O3          2.0493    1.6012    1.9881 O.co2     1 <0>        -0.6733
     24 H3          0.0094   -5.0248   -1.2615 H         1 <0>         0.1243
     25 H4          2.4171   -5.5332   -1.1684 H         1 <0>         0.1246
     26 H5          4.0259   -3.7810   -0.5643 H         1 <0>         0.1341
     27 H6         -0.7870   -2.7540   -0.7391 H         1 <0>         0.1246
     28 H7          0.5006    0.0001   -0.8330 H         1 <0>         0.0873
     29 H8          0.3416   -0.4493    0.8932 H         1 <0>         0.0926
     30 H9          4.6401    1.9495   -0.4752 H         1 <0>         0.0625
     31 H10         3.4225    1.1110    0.5206 H         1 <0>         0.1817
     32 H11         4.4851    3.0687    1.6996 H         1 <0>         0.0966
     33 H12         4.7342    1.5227    2.5470 H         1 <0>         0.0963
     34 H13         6.7299    2.8406    0.6499 H         1 <0>         0.0825
     35 H14         6.8373    2.8493    2.4263 H         1 <0>         0.0863
     36 H15         7.1225   -0.8581    0.3167 H         1 <0>         0.1121
     37 H16         7.0554    0.6642   -0.6083 H         1 <0>         0.0804
     38 H17         8.9397    1.6195    2.2828 H         1 <0>         0.4360
     39 H18         9.0882    0.2088    1.4444 H         1 <0>         0.4352
     40 H19         8.8749    1.6289    0.6364 H         1 <0>         0.4300
@<TRIPOS>BOND
     1    1    6 ar
     2    1    2 ar
     3    1   24 1
     4    2    3 ar
     5    2   25 1
     6    3    4 ar
     7    3   26 1
     8    4   10 1
     9    4    5 ar
    10    5    6 ar
    11    5    7 1
    12    6   27 1
    13    7    8 1
    14    7   28 1
    15    7   29 1
    16    8    9 1
    17    8   10 1
    18    8   21 1
    19   10   11 am
    20   11   12 2
    21   11   13 am
    22   13   19 1
    23   13   14 1
    24   14   15 1
    25   14   30 1
    26   14   31 1
    27   15   16 1
    28   15   32 1
    29   15   33 1
    30   16   17 1
    31   16   34 1
    32   16   35 1
    33   17   18 1
    34   17   19 1
    35   17   20 1
    36   19   36 1
    37   19   37 1
    38   20   38 1
    39   20   39 1
    40   20   40 1
    41   21   22 2
    42   21   23 1
@<TRIPOS>MOLECULE
ZINC50244743
   42    43     0     0     0
SMALL
USER_CHARGES

@<TRIPOS>ATOM
      1 C1         -0.0005    1.3489   -0.2276 C.3       1 <0>        -0.1349
      2 C2          1.4207    1.9164   -0.2150 C.3       1 <0>        -0.1176
      3 C3          2.1026    1.5593    1.1078 C.3       1 <0>        -0.1018
      4 H1          1.5217    1.9629    1.9371 H         1 <0>         0.0678
      5 C4          2.1893    0.0354    1.2379 C.3       1 <0>         0.0535
      6 N1          0.8422   -0.5299    1.0816 N.am      1 <0>        -0.6138
      7 C5          0.0623   -0.1774   -0.1126 C.3       1 <0>         0.1281
      8 C6          0.3317   -1.3565    2.0158 C.2       1 <0>         0.7301
      9 O1         -0.8471   -1.6531    1.9864 O.2       1 <0>        -0.5811
     10 N2          1.1279   -1.8544    2.9825 N.am      1 <0>        -0.6384
     11 C7          2.5130   -1.4400    3.2498 C.3       1 <0>         0.0874
     12 C8          3.0290   -2.2970    4.4249 C.3       1 <0>        -0.1515
     13 C9          2.0982   -3.5377    4.3852 C.3       1 <0>         0.0035
     14 H2          2.4457   -4.2634    3.6500 H         1 <0>         0.1613
     15 C10         0.7521   -2.9002    3.9513 C.3       1 <0>         0.1176
     16 N3          1.9835   -4.1526    5.7144 N.4       1 <0>        -0.6260
     17 C11         3.5114    2.1556    1.1333 C.3       1 <0>        -0.0899
     18 C12         4.1463    1.9056    2.5027 C.3       1 <0>        -0.1809
     19 C13         5.5339    2.4929    2.5279 C.2       1 <0>         0.4854
     20 O2          5.9742    3.0590    1.5419 O.co2     1 <0>        -0.6914
     21 O3          6.2162    2.4020    3.5342 O.co2     1 <0>        -0.7081
     22 H3         -0.5617    1.7544    0.6143 H         1 <0>         0.0658
     23 H4         -0.4936    1.6235   -1.1602 H         1 <0>         0.0773
     24 H5          1.9887    1.4915   -1.0426 H         1 <0>         0.0658
     25 H6          1.3799    3.0004   -0.3215 H         1 <0>         0.0700
     26 H7          2.8442   -0.3609    0.4620 H         1 <0>         0.0710
     27 H8          2.5834   -0.2256    2.2201 H         1 <0>         0.1253
     28 H9         -0.9470   -0.5788   -0.0215 H         1 <0>         0.0916
     29 H10         0.5437   -0.5911   -0.9987 H         1 <0>         0.0693
     30 H11         3.1285   -1.6126    2.3669 H         1 <0>         0.0977
     31 H12         2.5383   -0.3847    3.5214 H         1 <0>         0.1064
     32 H13         4.0669   -2.5882    4.2633 H         1 <0>         0.1183
     33 H14         2.9197   -1.7629    5.3688 H         1 <0>         0.1041
     34 H15         0.2450   -2.4583    4.8089 H         1 <0>         0.0849
     35 H16         0.1153   -3.6464    3.4760 H         1 <0>         0.1046
     36 H17         1.6231   -3.4744    6.3688 H         1 <0>         0.4357
     37 H18         1.3556   -4.9410    5.6672 H         1 <0>         0.4384
     38 H19         4.1189    1.6857    0.3599 H         1 <0>         0.0638
     39 H20         3.4552    3.2285    0.9493 H         1 <0>         0.0687
     40 H21         3.5388    2.3756    3.2761 H         1 <0>         0.0542
     41 H22         4.2025    0.8327    2.6867 H         1 <0>         0.0465
     42 H23         2.8929   -4.4647    6.0202 H         1 <0>         0.4416
@<TRIPOS>BOND
     1    1    7 1
     2    1    2 1
     3    1   22 1
     4    1   23 1
     5    2    3 1
     6    2   24 1
     7    2   25 1
     8    3    4 1
     9    3    5 1
    10    3   17 1
    11    5    6 1
    12    5   26 1
    13    5   27 1
    14    6    7 1
    15    6    8 am
    16    7   28 1
    17    7   29 1
    18    8    9 2
    19    8   10 am
    20   10   15 1
    21   10   11 1
    22   11   12 1
    23   11   30 1
    24   11   31 1
    25   12   13 1
    26   12   32 1
    27   12   33 1
    28   13   14 1
    29   13   15 1
    30   13   16 1
    31   15   34 1
    32   15   35 1
    33   16   36 1
    34   16   37 1
    35   16   42 1
    36   17   18 1
    37   17   38 1
    38   17   39 1
    39   18   19 1
    40   18   40 1
    41   18   41 1
    42   19   20 2
    43   19   21 1
@<TRIPOS>MOLECULE
ZINC62876334
   42    43     0     0     0
SMALL
USER_CHARGES

@<TRIPOS>ATOM
      1 C1         -0.7614   -2.8196    3.1804 C.3       1 <0>        -0.1166
      2 C2         -1.5117   -1.9988    2.1295 C.3       1 <0>        -0.1423
      3 C3         -0.8706   -2.2175    0.7572 C.3       1 <0>        -0.0883
      4 C4          0.6027   -1.8067    0.8092 C.3       1 <0>        -0.1398
      5 C5          0.7016   -0.3182    1.1573 C.3       1 <0>         0.1306
      6 N1         -0.0373   -0.0738    2.4035 N.am      1 <0>        -0.6123
      7 C6         -1.4368   -0.5124    2.4926 C.3       1 <0>         0.0783
      8 C7          0.5574    0.5406    3.4452 C.2       1 <0>         0.7279
      9 O1          1.7611    0.7126    3.4431 O.2       1 <0>        -0.5924
     10 N2         -0.1820    0.9643    4.4893 N.am      1 <0>        -0.6410
     11 C8         -1.6035    0.6615    4.7116 C.3       1 <0>         0.0924
     12 C9         -2.0263    1.3764    6.0122 C.3       1 <0>        -0.1479
     13 C10        -0.9689    2.5037    6.1487 C.3       1 <0>        -0.1412
     14 H1         -1.2368    3.3666    5.5390 H         1 <0>         0.1112
     15 C11         0.3021    1.8029    5.6010 C.3       1 <0>         0.1431
     16 C12        -0.7830    2.9069    7.6129 C.3       1 <0>         0.0048
     17 N3         -2.0156    3.5337    8.1084 N.4       1 <0>        -0.6366
     18 C13        -2.9538   -2.4340    2.0869 C.2       1 <0>         0.5050
     19 O2         -3.6486   -2.3404    3.0844 O.co2     1 <0>        -0.7015
     20 O3         -3.4258   -2.8798    1.0549 O.co2     1 <0>        -0.6842
     21 H2         -1.2165   -2.6612    4.1580 H         1 <0>         0.0469
     22 H3         -0.8150   -3.8771    2.9216 H         1 <0>         0.0485
     23 H4          0.2819   -2.5052    3.2100 H         1 <0>         0.0426
     24 H5         -0.9446   -3.2705    0.4855 H         1 <0>         0.0649
     25 H6         -1.3901   -1.6134    0.0133 H         1 <0>         0.0601
     26 H7          1.1173   -2.3933    1.5702 H         1 <0>         0.0657
     27 H8          1.0645   -1.9847   -0.1620 H         1 <0>         0.0700
     28 H9          1.7476   -0.0433    1.2928 H         1 <0>         0.0870
     29 H10         0.2671    0.2749    0.3525 H         1 <0>         0.0641
     30 H11        -2.0456    0.0649    1.7968 H         1 <0>         0.0578
     31 H12        -1.8016   -0.3657    3.5092 H         1 <0>         0.1284
     32 H13        -2.1965    1.0319    3.8754 H         1 <0>         0.0862
     33 H14        -1.7409   -0.4145    4.8184 H         1 <0>         0.1010
     34 H15        -3.0272    1.7965    5.9135 H         1 <0>         0.0911
     35 H16        -1.9750    0.6947    6.8612 H         1 <0>         0.0893
     36 H17         0.7588    1.1832    6.3726 H         1 <0>         0.0729
     37 H18         1.0149    2.5423    5.2358 H         1 <0>         0.0872
     38 H19        -0.5610    2.0212    8.2082 H         1 <0>         0.1385
     39 H20         0.0421    3.6146    7.6929 H         1 <0>         0.1388
     40 H21        -2.7794    2.8786    8.0344 H         1 <0>         0.4362
     41 H22        -1.8930    3.7996    9.0740 H         1 <0>         0.4379
     42 H23        -2.2211    4.3536    7.5573 H         1 <0>         0.4355
@<TRIPOS>BOND
     1    1    2 1
     2    1   21 1
     3    1   22 1
     4    1   23 1
     5    2    7 1
     6    2    3 1
     7    2   18 1
     8    3    4 1
     9    3   24 1
    10    3   25 1
    11    4    5 1
    12    4   26 1
    13    4   27 1
    14    5    6 1
    15    5   28 1
    16    5   29 1
    17    6    7 1
    18    6    8 am
    19    7   30 1
    20    7   31 1
    21    8    9 2
    22    8   10 am
    23   10   15 1
    24   10   11 1
    25   11   12 1
    26   11   32 1
    27   11   33 1
    28   12   13 1
    29   12   34 1
    30   12   35 1
    31   13   14 1
    32   13   15 1
    33   13   16 1
    34   15   36 1
    35   15   37 1
    36   16   17 1
    37   16   38 1
    38   16   39 1
    39   17   40 1
    40   17   41 1
    41   17   42 1
    42   18   19 2
    43   18   20 1
@<TRIPOS>MOLECULE
ZINC39767812
   24    24     0     0     0
SMALL
USER_CHARGES

@<TRIPOS>ATOM
      1 C1         -0.0187    1.5258    0.0104 C.3       1 <0>         0.0752
      2 C2          0.0021   -0.0041    0.0020 C.3       1 <0>        -0.0558
      3 Cl1        -1.6894   -0.6281    0.0148 Cl        1 <0>        -0.1471
      4 N1          1.3557    2.0329    0.0000 N.am      1 <0>        -0.5338
      5 C3          2.0109    2.2587    1.1667 C.2       1 <0>         0.1825
      6 C4          3.2815    2.7287    1.0718 C.2       1 <0>        -0.1610
      7 S1          3.4966    2.8320   -0.6956 S.3       1 <0>         0.1199
      8 C5          1.9829    2.2741   -1.1689 C.2       1 <0>         0.4657
      9 O1          1.5539    2.1253   -2.2991 O.2       1 <0>        -0.4337
     10 C6          4.2280    3.0638    2.1417 C.2       1 <0>         0.1971
     11 N2          5.4147    3.5055    1.8453 N.2       1 <0>        -0.2712
     12 N3          6.3184    3.8254    2.8669 N.pl3     1 <0>        -0.5335
     13 C7          7.5483    4.2832    2.5597 C.2       1 <0>         0.6020
     14 S2          8.6527    4.6741    3.8080 S.2       1 <0>        -0.6047
     15 N4          7.9087    4.4331    1.2697 N.pl3     1 <0>        -0.7816
     16 Cl2         1.2617    1.9621    2.7044 Cl        1 <0>         0.0274
     17 H1         -0.5459    1.8868   -0.8726 H         1 <0>         0.1196
     18 H2         -0.5289    1.8773    0.9072 H         1 <0>         0.1121
     19 H3          0.5123   -0.3556   -0.8948 H         1 <0>         0.1036
     20 H4          0.5293   -0.3651    0.8851 H         1 <0>         0.1013
     21 H5          3.9392    2.9436    3.1754 H         1 <0>         0.1503
     22 H6          6.0590    3.7174    3.7953 H         1 <0>         0.4222
     23 H7          7.2830    4.2116    0.5624 H         1 <0>         0.4094
     24 H8          8.7939    4.7626    1.0486 H         1 <0>         0.4341
@<TRIPOS>BOND
     1    1    2 1
     2    1    4 1
     3    1   17 1
     4    1   18 1
     5    2    3 1
     6    2   19 1
     7    2   20 1
     8    4    8 am
     9    4    5 1
    10    5    6 2
    11    5   16 1
    12    6    7 1
    13    6   10 1
    14    7    8 1
    15    8    9 2
    16   10   11 2
    17   10   21 1
    18   11   12 1
    19   12   13 1
    20   12   22 1
    21   13   14 2
    22   13   15 1
    23   15   23 1
    24   15   24 1
@<TRIPOS>MOLECULE
ZINC46925627
   41    42     0     0     0
SMALL
USER_CHARGES

@<TRIPOS>ATOM
      1 C1         -0.0163    1.3517    0.0095 C.2       1 <0>        -0.1855
      2 C2          1.1755    2.0360    0.0018 C.2       1 <0>        -0.0640
      3 C3          2.3196    1.2528   -0.0134 C.2       1 <0>        -0.2626
      4 S1          1.6361   -0.3937   -0.0157 S.3       1 <0>         0.2084
      5 C4          0.0021   -0.0041    0.0020 C.2       1 <0>        -0.2184
      6 C5          3.7248    1.6700   -0.0245 C.2       1 <0>         0.6103
      7 O1          4.0082    2.8535   -0.0209 O.2       1 <0>        -0.5229
      8 N1          4.7028    0.7428   -0.0389 N.am      1 <0>        -0.7234
      9 C6          6.1072    1.1597   -0.0500 C.3       1 <0>         0.1101
     10 C7          7.0065   -0.0780   -0.0653 C.3       1 <0>         0.1276
     11 N2          8.4109    0.3389   -0.0764 N.am      1 <0>        -0.7447
     12 C8          9.3890   -0.5883   -0.0907 C.2       1 <0>         0.7057
     13 O2          9.1058   -1.7707   -0.0944 O.2       1 <0>        -0.5875
     14 N3         10.6810   -0.2047   -0.1010 N.am      1 <0>        -0.7437
     15 C9         11.7442   -1.2125   -0.1166 C.3       1 <0>         0.1448
     16 C10        13.1066   -0.5164   -0.1259 C.3       1 <0>        -0.1054
     17 C11        13.3156    0.2181   -1.4662 C.3       1 <0>        -0.1220
     18 C12        14.8214    0.0258   -1.7740 C.3       1 <0>        -0.1265
     19 C13        15.0861   -1.4228   -1.2937 C.3       1 <0>        -0.1263
     20 C14        14.2323   -1.5598   -0.0162 C.3       1 <0>        -0.1179
     21 H1         -0.9545    1.8864    0.0258 H         1 <0>         0.1405
     22 H2          1.2182    3.1151    0.0068 H         1 <0>         0.1507
     23 H3         -0.8410   -0.6791    0.0070 H         1 <0>         0.1908
     24 H4          4.4769   -0.2005   -0.0418 H         1 <0>         0.4034
     25 H5          6.3008    1.7604   -0.9387 H         1 <0>         0.0794
     26 H6          6.3178    1.7509    0.8412 H         1 <0>         0.0795
     27 H7          6.8129   -0.6788    0.8234 H         1 <0>         0.0756
     28 H8          6.7959   -0.6692   -0.9565 H         1 <0>         0.0756
     29 H9          8.6368    1.2822   -0.0735 H         1 <0>         0.3995
     30 H10        10.9069    0.7386   -0.0981 H         1 <0>         0.3969
     31 H11        11.6629   -1.8402    0.7709 H         1 <0>         0.0668
     32 H12        11.6459   -1.8306   -1.0090 H         1 <0>         0.0683
     33 H13        13.1703    0.1900    0.7018 H         1 <0>         0.0787
     34 H14        12.7056   -0.2340   -2.2482 H         1 <0>         0.0693
     35 H15        13.0799    1.2772   -1.3616 H         1 <0>         0.0646
     36 H16        15.0121    0.1192   -2.8431 H         1 <0>         0.0666
     37 H17        15.4250    0.7363   -1.2093 H         1 <0>         0.0671
     38 H18        14.7620   -2.1400   -2.0479 H         1 <0>         0.0665
     39 H19        16.1424   -1.5613   -1.0633 H         1 <0>         0.0663
     40 H20        14.8429   -1.3592    0.8642 H         1 <0>         0.0683
     41 H21        13.8080   -2.5620    0.0436 H         1 <0>         0.0693
@<TRIPOS>BOND
     1    1    5 2
     2    1    2 1
     3    1   21 1
     4    2    3 2
     5    2   22 1
     6    3    4 1
     7    3    6 1
     8    4    5 1
     9    5   23 1
    10    6    7 2
    11    6    8 am
    12    8    9 1
    13    8   24 1
    14    9   10 1
    15    9   25 1
    16    9   26 1
    17   10   11 1
    18   10   27 1
    19   10   28 1
    20   11   12 am
    21   11   29 1
    22   12   13 2
    23   12   14 am
    24   14   15 1
    25   14   30 1
    26   15   16 1
    27   15   31 1
    28   15   32 1
    29   16   20 1
    30   16   17 1
    31   16   33 1
    32   17   18 1
    33   17   34 1
    34   17   35 1
    35   18   19 1
    36   18   36 1
    37   18   37 1
    38   19   20 1
    39   19   38 1
    40   19   39 1
    41   20   40 1
    42   20   41 1
@<TRIPOS>MOLECULE
ZINC50790388
   34    35     0     0     0
SMALL
USER_CHARGES

@<TRIPOS>ATOM
      1 C1         -0.0178    1.4608    0.0101 C.3       1 <0>         0.0837
      2 N1          0.0021   -0.0041    0.0020 N.pl3     1 <0>        -0.7349
      3 C2          0.6235   -0.6966    1.0353 C.ar      1 <0>         0.2898
      4 C3          1.2214    0.0035    2.0798 C.ar      1 <0>        -0.2063
      5 C4          1.8371   -0.6790    3.1037 C.ar      1 <0>        -0.0046
      6 C5          1.8619   -2.0768    3.0945 C.ar      1 <0>        -0.2012
      7 C6          1.2607   -2.7767    2.0445 C.ar      1 <0>         0.0396
      8 C7          0.6415   -2.0885    1.0262 C.ar      1 <0>        -0.2755
      9 C8         -0.0127   -2.8423   -0.1029 C.3       1 <0>         0.5133
     10 F1          0.1347   -4.2176    0.1075 F         1 <0>        -0.1709
     11 F2         -1.3735   -2.5212   -0.1513 F         1 <0>        -0.1783
     12 F3          0.5934   -2.4881   -1.3130 F         1 <0>        -0.1786
     13 C9          2.5216   -2.8116    4.1905 C.2       1 <0>         0.5655
     14 O1          2.5424   -4.0273    4.1813 O.2       1 <0>        -0.5383
     15 N2          3.1012   -2.1353    5.2021 N.am      1 <0>        -0.7253
     16 C10         3.7563   -2.8650    6.2905 C.3       1 <0>         0.2005
     17 C11         4.3197   -1.8834    7.2855 C.2       1 <0>        -0.2652
     18 C12         5.5587   -1.3404    7.2541 C.2       1 <0>         0.0840
     19 N3          5.6733   -0.5154    8.3158 N.pl3     1 <0>        -0.4741
     20 H1          6.4544    0.0108    8.5480 H         1 <0>         0.4425
     21 N4          4.4647   -0.5526    9.0231 N.2       1 <0>        -0.2920
     22 C13         3.6522   -1.3681    8.4014 C.2       1 <0>         0.0677
     23 H2          1.0048    1.8381    0.0023 H         1 <0>         0.0631
     24 H3         -0.5450    1.8219   -0.8730 H         1 <0>         0.0822
     25 H4         -0.5280    1.8123    0.9069 H         1 <0>         0.0633
     26 H5         -0.4183   -0.4908   -0.7241 H         1 <0>         0.4050
     27 H6          1.2023    1.0833    2.0861 H         1 <0>         0.1403
     28 H7          2.3011   -0.1354    3.9134 H         1 <0>         0.1337
     29 H8          1.2785   -3.8565    2.0345 H         1 <0>         0.1517
     30 H9          3.0846   -1.1655    5.2094 H         1 <0>         0.3988
     31 H10         3.0291   -3.5080    6.7862 H         1 <0>         0.0787
     32 H11         4.5635   -3.4749    5.8848 H         1 <0>         0.0756
     33 H12         6.3196   -1.5329    6.5122 H         1 <0>         0.1801
     34 H13         2.6417   -1.6050    8.7000 H         1 <0>         0.1862
@<TRIPOS>BOND
     1    1    2 1
     2    1   23 1
     3    1   24 1
     4    1   25 1
     5    2    3 1
     6    2   26 1
     7    3    8 ar
     8    3    4 ar
     9    4    5 ar
    10    4   27 1
    11    5    6 ar
    12    5   28 1
    13    6    7 ar
    14    6   13 1
    15    7    8 ar
    16    7   29 1
    17    8    9 1
    18    9   10 1
    19    9   11 1
    20    9   12 1
    21   13   14 2
    22   13   15 am
    23   15   16 1
    24   15   30 1
    25   16   17 1
    26   16   31 1
    27   16   32 1
    28   17   22 1
    29   17   18 2
    30   18   19 1
    31   18   33 1
    32   19   20 1
    33   19   21 1
    34   21   22 2
    35   22   34 1
@<TRIPOS>MOLECULE
ZINC61855941
   40    41     0     0     0
SMALL
USER_CHARGES

@<TRIPOS>ATOM
      1 C1         -0.0187    1.5258    0.0104 C.3       1 <0>        -0.1740
      2 C2          0.0021   -0.0041    0.0020 C.3       1 <0>         0.1132
      3 N1          0.6878   -0.4765   -1.2033 N.pl3     1 <0>        -0.6134
      4 C3          2.1353   -0.7012   -1.1821 C.3       1 <0>         0.1106
      5 C4          2.4212   -2.1448   -0.7635 C.3       1 <0>         0.0597
      6 H1          1.9277   -2.3595    0.1844 H         1 <0>         0.0808
      7 C5          3.9438   -2.3570   -0.6211 C.3       1 <0>        -0.1506
      8 C6          4.1343   -3.7819   -1.2087 C.3       1 <0>        -0.1563
      9 C7          3.0525   -3.7897   -2.3179 C.3       1 <0>         0.0470
     10 O1          1.9493   -3.0457   -1.7720 O.3       1 <0>        -0.3644
     11 C8         -0.0369   -0.7122   -2.3701 C.ar      1 <0>         0.2574
     12 C9          0.6150   -1.1664   -3.5124 C.ar      1 <0>        -0.1736
     13 C10        -0.0979   -1.4004   -4.6672 C.ar      1 <0>        -0.0371
     14 C11        -1.4767   -1.1820   -4.6916 C.ar      1 <0>        -0.1104
     15 C12        -2.1293   -0.7264   -3.5435 C.ar      1 <0>         0.0523
     16 C13        -1.4105   -0.4985   -2.3887 C.ar      1 <0>        -0.2002
     17 Cl1        -3.8435   -0.4533   -3.5686 Cl        1 <0>        -0.0284
     18 C14        -2.2445   -1.4319   -5.9302 C.2       1 <0>         0.4091
     19 N2         -3.5300   -1.2279   -5.9515 N.2       1 <0>        -0.3952
     20 O2         -4.2653   -1.4672   -7.1377 O.3       1 <0>        -0.4347
     21 N3         -1.5962   -1.8831   -7.0677 N.pl3     1 <0>        -0.8724
     22 H2          1.0039    1.9031    0.0027 H         1 <0>         0.0568
     23 H3         -0.5459    1.8868   -0.8726 H         1 <0>         0.0607
     24 H4         -0.5289    1.8773    0.9072 H         1 <0>         0.0671
     25 H5          0.5293   -0.3651    0.8851 H         1 <0>         0.0764
     26 H6         -1.0205   -0.3814    0.0098 H         1 <0>         0.0795
     27 H7          2.5453   -0.5232   -2.1762 H         1 <0>         0.0830
     28 H8          2.5986   -0.0180   -0.4703 H         1 <0>         0.0878
     29 H9          4.4945   -1.6197   -1.2052 H         1 <0>         0.0796
     30 H10         4.2435   -2.3261    0.4265 H         1 <0>         0.0837
     31 H11         5.1316   -3.9022   -1.6317 H         1 <0>         0.0839
     32 H12         3.9331   -4.5464   -0.4583 H         1 <0>         0.0785
     33 H13         3.4296   -3.3032   -3.2175 H         1 <0>         0.0598
     34 H14         2.7456   -4.8118   -2.5399 H         1 <0>         0.0851
     35 H15         1.6815   -1.3354   -3.4935 H         1 <0>         0.1333
     36 H16         0.4093   -1.7523   -5.5534 H         1 <0>         0.1293
     37 H17        -1.9145   -0.1502   -1.4992 H         1 <0>         0.1371
     38 H18        -5.2120   -1.2876   -7.0566 H         1 <0>         0.3977
     39 H19        -0.6383   -2.0352   -7.0518 H         1 <0>         0.3931
     40 H20        -2.0999   -2.0471   -7.8802 H         1 <0>         0.4080
@<TRIPOS>BOND
     1    1    2 1
     2    1   22 1
     3    1   23 1
     4    1   24 1
     5    2    3 1
     6    2   25 1
     7    2   26 1
     8    3    4 1
     9    3   11 1
    10    4    5 1
    11    4   27 1
    12    4   28 1
    13    5    6 1
    14    5   10 1
    15    5    7 1
    16    7    8 1
    17    7   29 1
    18    7   30 1
    19    8    9 1
    20    8   31 1
    21    8   32 1
    22    9   10 1
    23    9   33 1
    24    9   34 1
    25   11   16 ar
    26   11   12 ar
    27   12   13 ar
    28   12   35 1
    29   13   14 ar
    30   13   36 1
    31   14   15 ar
    32   14   18 1
    33   15   16 ar
    34   15   17 1
    35   16   37 1
    36   18   19 2
    37   18   21 1
    38   19   20 1
    39   20   38 1
    40   21   39 1
    41   21   40 1
@<TRIPOS>MOLECULE
ZINC66733024
   47    48     0     0     0
SMALL
USER_CHARGES

@<TRIPOS>ATOM
      1 C1         -0.1107    1.5100    0.0281 C.3       1 <0>        -0.1130
      2 C2         -0.0657    0.0038    0.0137 C.ar      1 <0>        -0.0652
      3 C3         -0.0619   -0.6774   -1.1900 C.ar      1 <0>        -0.1408
      4 C4         -0.0226   -2.0580   -1.2058 C.ar      1 <0>        -0.0633
      5 C5          0.0139   -2.7698   -0.0181 C.ar      1 <0>        -0.1246
      6 C6          0.0130   -2.0877    1.1880 C.ar      1 <0>         0.1604
      7 C7         -0.0224   -0.6978    1.2016 C.ar      1 <0>        -0.1569
      8 N1          0.0583   -2.7812    2.4054 N.am      1 <0>        -0.5558
      9 C8         -0.1958   -4.2284    2.4075 C.3       1 <0>         0.0998
     10 C9          0.5887   -4.8436    1.2412 C.3       1 <0>        -0.1362
     11 C10         0.0504   -4.2743   -0.0713 C.3       1 <0>        -0.0772
     12 C11         0.3308   -2.1316    3.5544 C.2       1 <0>         0.5124
     13 O1          0.6478   -0.9612    3.5288 O.2       1 <0>        -0.5112
     14 C12         0.2416   -2.8595    4.8709 C.3       1 <0>        -0.1372
     15 C13         0.5975   -1.9008    6.0089 C.3       1 <0>        -0.1033
     16 C14         0.5069   -2.6398    7.3455 C.3       1 <0>        -0.1305
     17 C15         0.8627   -1.6811    8.4835 C.3       1 <0>         0.1354
     18 N2          0.7760   -2.3887    9.7634 N.am      1 <0>        -0.7471
     19 C16         1.0485   -1.7391   10.9124 C.2       1 <0>         0.7032
     20 O2          1.3663   -0.5658   10.8868 O.2       1 <0>        -0.5925
     21 N3          0.9687   -2.3901   12.0898 N.am      1 <0>        -0.8683
     22 C17        -0.0197   -2.7932   -2.5213 C.3       1 <0>        -0.1153
     23 H1          0.9055    1.9041    0.0124 H         1 <0>         0.0713
     24 H2         -0.6519    1.8658   -0.8486 H         1 <0>         0.0660
     25 H3         -0.6182    1.8497    0.9309 H         1 <0>         0.0669
     26 H4         -0.0903   -0.1286   -2.1197 H         1 <0>         0.1207
     27 H5         -0.0210   -0.1670    2.1422 H         1 <0>         0.1656
     28 H6          0.1425   -4.6612    3.3490 H         1 <0>         0.0943
     29 H7         -1.2613   -4.4163    2.2757 H         1 <0>         0.0789
     30 H8          1.6454   -4.5955    1.3407 H         1 <0>         0.0729
     31 H9          0.4637   -5.9264    1.2480 H         1 <0>         0.0872
     32 H10        -0.9576   -4.6528   -0.2410 H         1 <0>         0.0768
     33 H11         0.6953   -4.5897   -0.8914 H         1 <0>         0.0814
     34 H12        -0.7733   -3.2309    5.0127 H         1 <0>         0.0987
     35 H13         0.9385   -3.6977    4.8706 H         1 <0>         0.0977
     36 H14         1.6124   -1.5294    5.8671 H         1 <0>         0.0769
     37 H15        -0.0994   -1.0626    6.0092 H         1 <0>         0.0769
     38 H16        -0.5081   -3.0112    7.4873 H         1 <0>         0.0712
     39 H17         1.2037   -3.4780    7.3452 H         1 <0>         0.0711
     40 H18         1.8777   -1.3097    8.3417 H         1 <0>         0.0689
     41 H19         0.1659   -0.8429    8.4838 H         1 <0>         0.0690
     42 H20         0.5225   -3.3248    9.7838 H         1 <0>         0.3963
     43 H21         0.7151   -3.3262   12.1102 H         1 <0>         0.3966
     44 H22         1.1648   -1.9226   12.9167 H         1 <0>         0.4158
     45 H23         1.0081   -2.9410   -2.8527 H         1 <0>         0.0711
     46 H24        -0.5043   -3.7617   -2.3973 H         1 <0>         0.0676
     47 H25        -0.5609   -2.2088   -3.2654 H         1 <0>         0.0675
@<TRIPOS>BOND
     1    1    2 1
     2    1   23 1
     3    1   24 1
     4    1   25 1
     5    2    7 ar
     6    2    3 ar
     7    3    4 ar
     8    3   26 1
     9    4    5 ar
    10    4   22 1
    11    5   11 1
    12    5    6 ar
    13    6    7 ar
    14    6    8 1
    15    7   27 1
    16    8    9 1
    17    8   12 am
    18    9   10 1
    19    9   28 1
    20    9   29 1
    21   10   11 1
    22   10   30 1
    23   10   31 1
    24   11   32 1
    25   11   33 1
    26   12   13 2
    27   12   14 1
    28   14   15 1
    29   14   34 1
    30   14   35 1
    31   15   16 1
    32   15   36 1
    33   15   37 1
    34   16   17 1
    35   16   38 1
    36   16   39 1
    37   17   18 1
    38   17   40 1
    39   17   41 1
    40   18   19 am
    41   18   42 1
    42   19   20 2
    43   19   21 am
    44   21   43 1
    45   21   44 1
    46   22   45 1
    47   22   46 1
    48   22   47 1
@<TRIPOS>MOLECULE
ZINC36812927
   39    41     0     0     0
SMALL
USER_CHARGES

@<TRIPOS>ATOM
      1 C1         -0.0168    1.3894    0.0097 C.ar      1 <0>        -0.0285
      2 C2          1.1396    2.1072    0.0025 C.ar      1 <0>        -0.1247
      3 C3          2.3763    1.4390   -0.0129 C.ar      1 <0>         0.1232
      4 C4          2.3924    0.0226   -0.0207 C.ar      1 <0>        -0.0490
      5 C5          1.1822   -0.6861   -0.0125 C.ar      1 <0>        -0.0371
      6 C6          0.0021   -0.0041    0.0020 C.ar      1 <0>        -0.0759
      7 Br1        -1.6293   -0.9604    0.0125 Br        1 <0>         0.0041
      8 C7          3.6359   -0.6483   -0.0361 C.ar      1 <0>         0.2625
      9 C8          4.7918    0.1245   -0.0429 C.ar      1 <0>         0.1601
     10 C9          4.6900    1.5144   -0.0345 C.ar      1 <0>         0.1359
     11 N1          3.5263    2.1218   -0.0198 N.ar      1 <0>        -0.4279
     12 N2          6.0520   -0.4907   -0.0577 N.pl3     1 <0>        -0.8389
     13 N3          3.7016   -2.0382   -0.0438 N.pl3     1 <0>        -0.6791
     14 C10         3.7431   -2.7926    1.2163 C.3       1 <0>         0.1326
     15 C11         4.9557   -3.7284    1.1912 C.3       1 <0>        -0.1352
     16 C12         4.8943   -4.6029   -0.0633 C.3       1 <0>        -0.1154
     17 C13         4.9432   -3.7152   -1.3089 C.3       1 <0>        -0.1247
     18 H1          5.8589   -3.1240   -1.2986 H         1 <0>         0.0971
     19 C14         3.7247   -2.7796   -1.3121 C.3       1 <0>         0.1565
     20 C15         4.9160   -4.5790   -2.5435 C.2       1 <0>         0.5221
     21 O1          4.0175   -4.4574   -3.3490 O.2       1 <0>        -0.5371
     22 N4          5.8902   -5.4866   -2.7525 N.am      1 <0>        -0.8504
     23 H2         -0.9641    1.9079    0.0261 H         1 <0>         0.1628
     24 H3          1.1072    3.1867    0.0082 H         1 <0>         0.1643
     25 H4          1.1853   -1.7661   -0.0181 H         1 <0>         0.1643
     26 H5          5.5925    2.1076   -0.0395 H         1 <0>         0.2096
     27 H6          6.1193   -1.4584   -0.0633 H         1 <0>         0.4179
     28 H7          6.8564    0.0514   -0.0625 H         1 <0>         0.4153
     29 H8          3.8328   -2.1007    2.0537 H         1 <0>         0.0787
     30 H9          2.8306   -3.3797    1.3209 H         1 <0>         0.0745
     31 H10         5.8713   -3.1371    1.1779 H         1 <0>         0.0661
     32 H11         4.9444   -4.3625    2.0776 H         1 <0>         0.0899
     33 H12         5.7430   -5.2868   -0.0711 H         1 <0>         0.0775
     34 H13         3.9668   -5.1755   -0.0616 H         1 <0>         0.0792
     35 H14         2.8108   -3.3656   -1.4095 H         1 <0>         0.0837
     36 H15         3.8024   -2.0790   -2.1435 H         1 <0>         0.0830
     37 H16         6.6088   -5.5839   -2.1083 H         1 <0>         0.4029
     38 H17         5.8727   -6.0426   -3.5472 H         1 <0>         0.4083
     39 H18         3.4998    3.0914   -0.0146 H         1 <0>         0.4519
@<TRIPOS>BOND
     1    1    6 ar
     2    1    2 ar
     3    1   23 1
     4    2    3 ar
     5    2   24 1
     6    3   11 ar
     7    3    4 ar
     8    4    5 ar
     9    4    8 ar
    10    5    6 ar
    11    5   25 1
    12    6    7 1
    13    8    9 ar
    14    8   13 1
    15    9   10 ar
    16    9   12 1
    17   10   11 ar
    18   10   26 1
    19   11   39 1
    20   12   27 1
    21   12   28 1
    22   13   19 1
    23   13   14 1
    24   14   15 1
    25   14   29 1
    26   14   30 1
    27   15   16 1
    28   15   31 1
    29   15   32 1
    30   16   17 1
    31   16   33 1
    32   16   34 1
    33   17   18 1
    34   17   19 1
    35   17   20 1
    36   19   35 1
    37   19   36 1
    38   20   21 2
    39   20   22 am
    40   22   37 1
    41   22   38 1
@<TRIPOS>MOLECULE
ZINC39533963
   61    64     0     0     0
SMALL
USER_CHARGES

@<TRIPOS>ATOM
      1 C1          0.4372    2.9442    1.3093 C.3       1 <0>        -0.1291
      2 S1         -0.1273    1.2204    1.2930 S.3       1 <0>        -0.0674
      3 N1          1.1295    0.3511    2.1762 N.3       1 <0>        -0.6540
      4 C2          0.8846   -1.0972    2.1512 C.3       1 <0>         0.0333
      5 C3          2.1537   -1.8364    2.5801 C.3       1 <0>         0.1465
      6 H1          2.3839   -1.5916    3.6170 H         1 <0>         0.1025
      7 C4          1.9374   -3.3222    2.4509 C.ar      1 <0>        -0.0886
      8 C5          2.5289   -4.0167    1.4110 C.ar      1 <0>        -0.1004
      9 C6          2.3340   -5.3774    1.2875 C.ar      1 <0>        -0.1082
     10 C7          1.5399   -6.0517    2.2132 C.ar      1 <0>        -0.0208
     11 C8          0.9468   -5.3470    3.2591 C.ar      1 <0>        -0.0961
     12 C9          1.1529   -3.9873    3.3758 C.ar      1 <0>        -0.1062
     13 C10         1.3263   -7.5140    2.0854 C.ar      1 <0>        -0.0871
     14 C11         0.9334   -8.0597    0.8655 C.ar      1 <0>        -0.0902
     15 C12         0.7359   -9.4208    0.7517 C.ar      1 <0>        -0.1260
     16 C13         0.9267  -10.2466    1.8456 C.ar      1 <0>        -0.0952
     17 C14         1.3159   -9.7156    3.0606 C.ar      1 <0>        -0.1428
     18 C15         1.5238   -8.3514    3.1873 C.ar      1 <0>         0.1198
     19 O1          1.9124   -7.8289    4.3795 O.3       1 <0>        -0.4918
     20 N2          3.2726   -1.4278    1.7204 N.3       1 <0>        -0.5178
     21 C16         3.9218   -0.2165    2.2412 C.3       1 <0>         0.0166
     22 C17         5.1156    0.1408    1.3529 C.3       1 <0>        -0.0020
     23 N3          4.6526    0.3655   -0.0228 N.4       1 <0>        -0.5060
     24 C18         4.0286   -0.8604   -0.5377 C.3       1 <0>         0.0927
     25 H2          4.7538   -1.6739   -0.5160 H         1 <0>         0.1556
     26 C19         2.8258   -1.2260    0.3348 C.3       1 <0>         0.0198
     27 C20         3.5704   -0.6336   -1.9553 C.ar      1 <0>        -0.1626
     28 C21         3.3360    0.6502   -2.4091 C.ar      1 <0>        -0.1109
     29 C22         2.9152    0.8588   -3.7093 C.ar      1 <0>        -0.1090
     30 C23         2.7281   -0.2161   -4.5590 C.ar      1 <0>        -0.0765
     31 C24         2.9614   -1.5014   -4.1102 C.ar      1 <0>        -0.1321
     32 C25         3.3889   -1.7131   -2.8073 C.ar      1 <0>         0.1417
     33 O2          3.6246   -2.9763   -2.3650 O.3       1 <0>        -0.4923
     34 H3          1.4449    3.0004    0.8977 H         1 <0>         0.0743
     35 H4         -0.2363    3.5528    0.7060 H         1 <0>         0.1126
     36 H5          0.4423    3.3152    2.3343 H         1 <0>         0.0808
     37 H6          1.2047    0.6888    3.1240 H         1 <0>         0.3544
     38 H7          0.0731   -1.3403    2.8371 H         1 <0>         0.0659
     39 H8          0.6103   -1.4019    1.1413 H         1 <0>         0.0960
     40 H9          3.1441   -3.4931    0.6943 H         1 <0>         0.1313
     41 H10         2.7957   -5.9185    0.4748 H         1 <0>         0.1258
     42 H11         0.3302   -5.8645    3.9791 H         1 <0>         0.1213
     43 H12         0.6974   -3.4409    4.1884 H         1 <0>         0.1231
     44 H13         0.7832   -7.4183    0.0097 H         1 <0>         0.1272
     45 H14         0.4309   -9.8430   -0.1945 H         1 <0>         0.1300
     46 H15         0.7703  -11.3109    1.7495 H         1 <0>         0.1312
     47 H16         1.4626  -10.3650    3.9110 H         1 <0>         0.1334
     48 H17         1.1784   -7.5741    4.9552 H         1 <0>         0.3886
     49 H18         3.2084    0.6076    2.2403 H         1 <0>         0.0889
     50 H19         4.2672   -0.3979    3.2590 H         1 <0>         0.1186
     51 H20         5.5901    1.0471    1.7292 H         1 <0>         0.1386
     52 H21         5.8352   -0.6778    1.3649 H         1 <0>         0.1390
     53 H22         3.9778    1.1156   -0.0320 H         1 <0>         0.4219
     54 H23         2.3715   -2.1439   -0.0382 H         1 <0>         0.1177
     55 H24         2.0943   -0.4186    0.3025 H         1 <0>         0.0929
     56 H25         3.4814    1.4913   -1.7475 H         1 <0>         0.1179
     57 H26         2.7318    1.8630   -4.0620 H         1 <0>         0.1382
     58 H27         2.3989   -0.0505   -5.5742 H         1 <0>         0.1406
     59 H28         2.8151   -2.3405   -4.7741 H         1 <0>         0.1434
     60 H29         2.8353   -3.4352   -2.0465 H         1 <0>         0.3998
     61 H30         5.4382    0.6132   -0.6056 H         1 <0>         0.4314
@<TRIPOS>BOND
     1    1    2 1
     2    1   34 1
     3    1   35 1
     4    1   36 1
     5    2    3 1
     6    3    4 1
     7    3   37 1
     8    4    5 1
     9    4   38 1
    10    4   39 1
    11    5    6 1
    12    5    7 1
    13    5   20 1
    14    7   12 ar
    15    7    8 ar
    16    8    9 ar
    17    8   40 1
    18    9   10 ar
    19    9   41 1
    20   10   11 ar
    21   10   13 1
    22   11   12 ar
    23   11   42 1
    24   12   43 1
    25   13   18 ar
    26   13   14 ar
    27   14   15 ar
    28   14   44 1
    29   15   16 ar
    30   15   45 1
    31   16   17 ar
    32   16   46 1
    33   17   18 ar
    34   17   47 1
    35   18   19 1
    36   19   48 1
    37   20   26 1
    38   20   21 1
    39   21   22 1
    40   21   49 1
    41   21   50 1
    42   22   23 1
    43   22   51 1
    44   22   52 1
    45   23   24 1
    46   23   53 1
    47   23   61 1
    48   24   25 1
    49   24   26 1
    50   24   27 1
    51   26   54 1
    52   26   55 1
    53   27   32 ar
    54   27   28 ar
    55   28   29 ar
    56   28   56 1
    57   29   30 ar
    58   29   57 1
    59   30   31 ar
    60   30   58 1
    61   31   32 ar
    62   31   59 1
    63   32   33 1
    64   33   60 1
@<TRIPOS>MOLECULE
ZINC44784411
   48    50     0     0     0
SMALL
USER_CHARGES

@<TRIPOS>ATOM
      1 C1         -0.0152    1.3895   -0.1458 C.3       1 <0>        -0.1268
      2 C2          1.3999    1.9706   -0.1223 C.3       1 <0>        -0.1271
      3 C3          2.1038    1.5472    1.1685 C.3       1 <0>        -0.0954
      4 C4          2.1783    0.0203    1.2316 C.3       1 <0>        -0.0554
      5 C5          0.7632   -0.5608    1.2081 C.3       1 <0>        -0.1214
      6 C6          0.0594   -0.1374   -0.0827 C.3       1 <0>        -0.1162
      7 C7          2.8716   -0.3967    2.5030 C.2       1 <0>         0.3740
      8 N1          4.1180   -0.1089    2.6833 N.2       1 <0>        -0.4152
      9 O1          4.8053    0.6869    1.7350 O.3       1 <0>        -0.3954
     10 N2          2.1764   -1.0845    3.4727 N.pl3     1 <0>        -0.8328
     11 C8          2.9524   -0.4942    0.0453 C.2       1 <0>         0.5477
     12 O2          3.5029    0.2848   -0.7037 O.2       1 <0>        -0.4937
     13 N3          3.0329   -1.8200   -0.1832 N.am      1 <0>        -0.7341
     14 C9          3.8749   -2.3262   -1.2700 C.3       1 <0>         0.1407
     15 H1          4.7624   -1.7008   -1.3660 H         1 <0>         0.1236
     16 C10         3.0873   -2.3037   -2.5819 C.3       1 <0>        -0.0225
     17 N4          2.9821   -3.6593   -3.1269 N.4       1 <0>        -0.3744
     18 C11         4.3106   -4.2010   -3.4220 C.3       1 <0>        -0.0093
     19 C12         5.1389   -4.2863   -2.1381 C.3       1 <0>        -0.1349
     20 C13         4.2940   -3.7704   -0.9656 C.3       1 <0>        -0.1087
     21 C14         3.0278   -4.6318   -0.8698 C.3       1 <0>        -0.1383
     22 C15         2.2628   -4.5342   -2.1980 C.3       1 <0>        -0.0081
     23 H2         -0.5751    1.7616    0.7122 H         1 <0>         0.0679
     24 H3         -0.5167    1.6911   -1.0654 H         1 <0>         0.0672
     25 H4          1.9598    1.5984   -0.9803 H         1 <0>         0.0800
     26 H5          1.3468    3.0584   -0.1672 H         1 <0>         0.0700
     27 H6          3.1119    1.9612    1.1852 H         1 <0>         0.0925
     28 H7          1.5439    1.9194    2.0265 H         1 <0>         0.0714
     29 H8          0.8163   -1.6486    1.2530 H         1 <0>         0.0681
     30 H9          0.2033   -0.1886    2.0661 H         1 <0>         0.0880
     31 H10        -0.9488   -0.5514   -0.0995 H         1 <0>         0.0739
     32 H11         0.6192   -0.5096   -0.9407 H         1 <0>         0.0525
     33 H12         5.7329    0.8485    1.9556 H         1 <0>         0.4009
     34 H13         1.2237   -1.2360    3.3710 H         1 <0>         0.4128
     35 H14         2.6394   -1.4175    4.2573 H         1 <0>         0.4100
     36 H15         2.5333   -2.4390    0.3719 H         1 <0>         0.4026
     37 H16         2.0880   -1.9096   -2.3971 H         1 <0>         0.1321
     38 H17         3.5996   -1.6638   -3.3003 H         1 <0>         0.1392
     39 H18         4.2076   -5.1969   -3.8529 H         1 <0>         0.1332
     40 H19         4.8160   -3.5505   -4.1359 H         1 <0>         0.1326
     41 H20         5.4235   -5.3225   -1.9552 H         1 <0>         0.1073
     42 H21         6.0337   -3.6721   -2.2390 H         1 <0>         0.1042
     43 H22         4.8664   -3.8103   -0.0388 H         1 <0>         0.1239
     44 H23         3.3049   -5.6688   -0.6803 H         1 <0>         0.1081
     45 H24         2.3977   -4.2660   -0.0591 H         1 <0>         0.0945
     46 H25         1.2682   -4.1277   -2.0149 H         1 <0>         0.1289
     47 H26         2.1706   -5.5283   -2.6354 H         1 <0>         0.1337
     48 H27         2.4635   -3.6165   -3.9914 H         1 <0>         0.4279
@<TRIPOS>BOND
     1    1    6 1
     2    1    2 1
     3    1   23 1
     4    1   24 1
     5    2    3 1
     6    2   25 1
     7    2   26 1
     8    3    4 1
     9    3   27 1
    10    3   28 1
    11    4    5 1
    12    4    7 1
    13    4   11 1
    14    5    6 1
    15    5   29 1
    16    5   30 1
    17    6   31 1
    18    6   32 1
    19    7    8 2
    20    7   10 1
    21    8    9 1
    22    9   33 1
    23   10   34 1
    24   10   35 1
    25   11   12 2
    26   11   13 am
    27   13   14 1
    28   13   36 1
    29   14   15 1
    30   14   20 1
    31   14   16 1
    32   16   17 1
    33   16   37 1
    34   16   38 1
    35   17   22 1
    36   17   18 1
    37   17   48 1
    38   18   19 1
    39   18   39 1
    40   18   40 1
    41   19   20 1
    42   19   41 1
    43   19   42 1
    44   20   21 1
    45   20   43 1
    46   21   22 1
    47   21   44 1
    48   21   45 1
    49   22   46 1
    50   22   47 1
@<TRIPOS>MOLECULE
ZINC52839690
   39    40     0     0     0
SMALL
USER_CHARGES

@<TRIPOS>ATOM
      1 C1         -0.0187    1.5258    0.0104 C.3       1 <0>        -0.1699
      2 C2          0.0021   -0.0041    0.0020 C.3       1 <0>         0.0017
      3 C3          0.7421   -0.5109    1.2415 C.3       1 <0>        -0.1503
      4 C4         -1.4333   -0.5336    0.0129 C.3       1 <0>        -0.1538
      5 C5          0.7074   -0.4901   -1.2379 C.cat     1 <0>         0.3633
      6 N1          1.3062    0.2663   -2.1126 N.pl3     1 <0>        -0.4354
      7 C6          1.8269   -0.5064   -3.0899 C.2       1 <0>        -0.0482
      8 C7          1.5293   -1.8082   -2.7953 C.2       1 <0>         0.3491
      9 N2          0.8265   -1.7922   -1.6213 N.pl3     1 <0>        -0.2803
     10 N3          0.3330   -2.8798   -0.9583 N.3       1 <0>        -0.5701
     11 N4          1.8775   -2.9294   -3.5403 N.pl3     1 <0>        -0.8117
     12 C8          2.5844   -0.0294   -4.2699 C.ar      1 <0>        -0.0017
     13 C9          3.8251    0.5865   -4.1036 C.ar      1 <0>        -0.0898
     14 C10         4.5260    1.0282   -5.2067 C.ar      1 <0>        -0.0789
     15 C11         4.0006    0.8620   -6.4759 C.ar      1 <0>        -0.0894
     16 C12         2.7709    0.2521   -6.6473 C.ar      1 <0>        -0.0647
     17 C13         2.0628   -0.1992   -5.5522 C.ar      1 <0>        -0.1610
     18 C14         0.7261   -0.8690   -5.7410 C.3       1 <0>         0.5018
     19 F1          0.4199   -0.9225   -7.1051 F         1 <0>        -0.1651
     20 F2          0.7780   -2.1678   -5.2235 F         1 <0>        -0.1731
     21 F3         -0.2604   -0.1387   -5.0699 F         1 <0>        -0.1748
     22 H1          1.0039    1.9031    0.0027 H         1 <0>         0.0702
     23 H2         -0.5459    1.8868   -0.8726 H         1 <0>         0.0721
     24 H3         -0.5289    1.8773    0.9072 H         1 <0>         0.1017
     25 H4          0.2319   -0.1594    2.1383 H         1 <0>         0.0899
     26 H5          0.7568   -1.6008    1.2356 H         1 <0>         0.0814
     27 H6          1.7647   -0.1336    1.2338 H         1 <0>         0.0657
     28 H7         -1.9605   -0.1726   -0.8702 H         1 <0>         0.0671
     29 H8         -1.4185   -1.6235    0.0069 H         1 <0>         0.0746
     30 H9         -1.9435   -0.1821    0.9097 H         1 <0>         0.0934
     31 H10        -0.6021   -3.0984   -1.2680 H         1 <0>         0.3868
     32 H11         0.9442   -3.6756   -1.0638 H         1 <0>         0.3917
     33 H12         2.3838   -2.8280   -4.3614 H         1 <0>         0.4385
     34 H13         1.6141   -3.8129   -3.2389 H         1 <0>         0.4141
     35 H14         4.2358    0.7175   -3.1134 H         1 <0>         0.1415
     36 H15         5.4866    1.5052   -5.0792 H         1 <0>         0.1480
     37 H16         4.5528    1.2101   -7.3363 H         1 <0>         0.1494
     38 H17         2.3659    0.1254   -7.6405 H         1 <0>         0.1520
     39 H18         1.3680    1.2333   -2.0692 H         1 <0>         0.4640
@<TRIPOS>BOND
     1    1    2 1
     2    1   22 1
     3    1   23 1
     4    1   24 1
     5    2    3 1
     6    2    4 1
     7    2    5 1
     8    3   25 1
     9    3   26 1
    10    3   27 1
    11    4   28 1
    12    4   29 1
    13    4   30 1
    14    5    9 1
    15    5    6 2
    16    6    7 1
    17    6   39 1
    18    7    8 2
    19    7   12 1
    20    8    9 1
    21    8   11 1
    22    9   10 1
    23   10   31 1
    24   10   32 1
    25   11   33 1
    26   11   34 1
    27   12   17 ar
    28   12   13 ar
    29   13   14 ar
    30   13   35 1
    31   14   15 ar
    32   14   36 1
    33   15   16 ar
    34   15   37 1
    35   16   17 ar
    36   16   38 1
    37   17   18 1
    38   18   19 1
    39   18   20 1
    40   18   21 1
@<TRIPOS>MOLECULE
ZINC66243467
   51    52     0     0     0
SMALL
USER_CHARGES

@<TRIPOS>ATOM
      1 C1         -0.1258    1.5932   -0.0802 C.3       1 <0>        -0.1552
      2 C2         -0.0226    0.0685   -0.0065 C.3       1 <0>        -0.1015
      3 C3          0.7811   -0.3289    1.2332 C.3       1 <0>        -0.1472
      4 C4         -1.4263   -0.5340    0.0809 C.3       1 <0>         0.1414
      5 H1         -1.9508   -0.1105    0.9374 H         1 <0>         0.1081
      6 C5         -2.1994   -0.2138   -1.2000 C.3       1 <0>         0.0803
      7 N1         -3.4987   -0.8899   -1.1681 N.pl3     1 <0>        -0.6890
      8 C6         -4.3731   -0.7485   -2.2195 C.cat     1 <0>         0.7298
      9 N2         -5.5291   -1.3500   -2.1912 N.pl3     1 <0>        -0.6509
     10 C7         -6.4609   -1.1994   -3.3115 C.3       1 <0>         0.0749
     11 C8         -7.7328   -2.0013   -3.0284 C.3       1 <0>         0.0659
     12 H2         -7.4751   -3.0367   -2.8054 H         1 <0>         0.1002
     13 C9         -8.6698   -1.9472   -4.2542 C.3       1 <0>        -0.1483
     14 C10       -10.0696   -1.8201   -3.5937 C.3       1 <0>        -0.1572
     15 C11        -9.7293   -0.9682   -2.3450 C.3       1 <0>         0.0477
     16 O1         -8.4336   -1.4254   -1.9199 O.3       1 <0>        -0.3779
     17 N3         -4.0283    0.0273   -3.3009 N.pl3     1 <0>        -0.8143
     18 N4         -1.3250   -1.9868    0.2398 N.pl3     1 <0>        -0.7478
     19 C12        -1.9539   -2.6171    1.3160 C.ar      1 <0>         0.1972
     20 C13        -2.5562   -1.8586    2.3118 C.ar      1 <0>        -0.2039
     21 C14        -3.1775   -2.4850    3.3742 C.ar      1 <0>        -0.0707
     22 C15        -3.2000   -3.8658    3.4478 C.ar      1 <0>        -0.1656
     23 C16        -2.6014   -4.6239    2.4583 C.ar      1 <0>        -0.0694
     24 C17        -1.9833   -4.0040    1.3901 C.ar      1 <0>        -0.1885
     25 H3          0.8742    2.0225   -0.1425 H         1 <0>         0.0694
     26 H4         -0.6984    1.8764   -0.9635 H         1 <0>         0.0549
     27 H5         -0.6267    1.9671    0.8127 H         1 <0>         0.0620
     28 H6          0.4783   -0.3053   -0.8995 H         1 <0>         0.0793
     29 H7          0.3243    0.1122    2.1192 H         1 <0>         0.0573
     30 H8          0.7869   -1.4146    1.3298 H         1 <0>         0.0624
     31 H9          1.8046    0.0325    1.1340 H         1 <0>         0.0624
     32 H10        -2.3519    0.8631   -1.2727 H         1 <0>         0.1012
     33 H11        -1.6310   -0.5594   -2.0635 H         1 <0>         0.0925
     34 H12        -3.7420   -1.4373   -0.4052 H         1 <0>         0.4351
     35 H13        -6.7149   -0.1465   -3.4338 H         1 <0>         0.1030
     36 H14        -5.9941   -1.5690   -4.2246 H         1 <0>         0.1086
     37 H15        -8.4514   -1.0756   -4.8712 H         1 <0>         0.0857
     38 H16        -8.5982   -2.8649   -4.8380 H         1 <0>         0.0959
     39 H17       -10.7667   -1.2969   -4.2481 H         1 <0>         0.0943
     40 H18       -10.4595   -2.7972   -3.3083 H         1 <0>         0.0866
     41 H19        -9.6909    0.0891   -2.6073 H         1 <0>         0.0676
     42 H20       -10.4658   -1.1373   -1.5594 H         1 <0>         0.0965
     43 H21        -3.1680    0.4750   -3.3220 H         1 <0>         0.4350
     44 H22        -4.6453    0.1271   -4.0427 H         1 <0>         0.4346
     45 H23        -0.8213   -2.5111   -0.4023 H         1 <0>         0.4034
     46 H24        -2.5384   -0.7803    2.2553 H         1 <0>         0.1204
     47 H25        -3.6460   -1.8959    4.1487 H         1 <0>         0.1240
     48 H26        -3.6860   -4.3531    4.2801 H         1 <0>         0.1231
     49 H27        -2.6207   -5.7020    2.5188 H         1 <0>         0.1250
     50 H28        -1.5198   -4.5967    0.6153 H         1 <0>         0.1206
     51 H29        -5.7724   -1.8974   -1.4282 H         1 <0>         0.4409
@<TRIPOS>BOND
     1    1    2 1
     2    1   25 1
     3    1   26 1
     4    1   27 1
     5    2    3 1
     6    2    4 1
     7    2   28 1
     8    3   29 1
     9    3   30 1
    10    3   31 1
    11    4    5 1
    12    4    6 1
    13    4   18 1
    14    6    7 1
    15    6   32 1
    16    6   33 1
    17    7    8 1
    18    7   34 1
    19    8    9 2
    20    8   17 1
    21    9   10 1
    22    9   51 1
    23   10   11 1
    24   10   35 1
    25   10   36 1
    26   11   12 1
    27   11   16 1
    28   11   13 1
    29   13   14 1
    30   13   37 1
    31   13   38 1
    32   14   15 1
    33   14   39 1
    34   14   40 1
    35   15   16 1
    36   15   41 1
    37   15   42 1
    38   17   43 1
    39   17   44 1
    40   18   19 1
    41   18   45 1
    42   19   24 ar
    43   19   20 ar
    44   20   21 ar
    45   20   46 1
    46   21   22 ar
    47   21   47 1
    48   22   23 ar
    49   22   48 1
    50   23   24 ar
    51   23   49 1
    52   24   50 1
@<TRIPOS>MOLECULE
ZINC09826232
   55    56     0     0     0
SMALL
USER_CHARGES
N-[[2-(2-bromo-4-methyl-phenoxy)acetyl]aminothiocarbamoyl]-2-(2-ethoxyethoxy)benzamide
@<TRIPOS>ATOM
      1 C1         -3.3447    7.2057   -2.6082 C.3       1 <0>        -0.1520
      2 C2         -4.0029    6.8765   -1.2668 C.3       1 <0>         0.0590
      3 O1         -4.2087    5.4656   -1.1707 O.3       1 <0>        -0.3794
      4 C3         -4.8216    5.0496    0.0513 C.3       1 <0>         0.0650
      5 C4         -4.9922    3.5291    0.0444 C.3       1 <0>         0.0550
      6 O2         -3.7065    2.9056    0.0349 O.3       1 <0>        -0.2689
      7 C5         -3.6799    1.5494    0.0279 C.ar      1 <0>         0.1989
      8 C6         -4.8653    0.8292    0.0297 C.ar      1 <0>        -0.2171
      9 C7         -4.8366   -0.5510    0.0216 C.ar      1 <0>        -0.0435
     10 C8         -3.6272   -1.2271    0.0118 C.ar      1 <0>        -0.1643
     11 C9         -2.4400   -0.5281    0.0050 C.ar      1 <0>        -0.0529
     12 C10        -2.4542    0.8692    0.0184 C.ar      1 <0>        -0.1775
     13 C11        -1.1873    1.6238    0.0165 C.2       1 <0>         0.5327
     14 O3         -1.2038    2.8392    0.0232 O.2       1 <0>        -0.3745
     15 N1         -0.0111    0.9658    0.0074 N.am      1 <0>        -0.6448
     16 C12         1.1468    1.6555   -0.0000 C.2       1 <0>         0.5168
     17 S1          1.1236    3.3673    0.0094 S.2       1 <0>        -0.4492
     18 N2          2.3230    0.9976   -0.0148 N.pl3     1 <0>        -0.4572
     19 N3          2.3420   -0.4032   -0.0225 N.am      1 <0>        -0.5509
     20 C13         3.5182   -1.0612   -0.0372 C.2       1 <0>         0.5213
     21 O4          4.5601   -0.4405   -0.0438 O.2       1 <0>        -0.4830
     22 C14         3.5386   -2.5680   -0.0455 C.3       1 <0>         0.0508
     23 O5          4.8922   -3.0259   -0.0609 O.3       1 <0>        -0.2750
     24 C15         5.0885   -4.3708   -0.0700 C.ar      1 <0>         0.1453
     25 C16         4.0009   -5.2319   -0.0642 C.ar      1 <0>        -0.1999
     26 C17         4.2029   -6.5984   -0.0740 C.ar      1 <0>        -0.0645
     27 C18         5.4880   -7.1088   -0.0899 C.ar      1 <0>        -0.1120
     28 C19         6.5740   -6.2534   -0.0962 C.ar      1 <0>        -0.0526
     29 C20         6.3774   -4.8851   -0.0909 C.ar      1 <0>        -0.1158
     30 Br1         7.8631   -3.7153   -0.1061 Br        1 <0>        -0.0264
     31 C21         5.7050   -8.6000   -0.1010 C.3       1 <0>        -0.1132
     32 H1         -3.9922    6.8767   -3.4211 H         1 <0>         0.0608
     33 H2         -3.1878    8.2818   -2.6815 H         1 <0>         0.0709
     34 H3         -2.3853    6.6930   -2.6777 H         1 <0>         0.0662
     35 H4         -4.9624    7.3891   -1.1974 H         1 <0>         0.0464
     36 H5         -3.3555    7.2055   -0.4540 H         1 <0>         0.0508
     37 H6         -5.7980    5.5243    0.1481 H         1 <0>         0.0715
     38 H7         -4.1912    5.3407    0.8915 H         1 <0>         0.0640
     39 H8         -5.5478    3.2299   -0.8443 H         1 <0>         0.0749
     40 H9         -5.5390    3.2209    0.9356 H         1 <0>         0.0809
     41 H10        -5.8120    1.3489    0.0370 H         1 <0>         0.1390
     42 H11        -5.7624   -1.1071    0.0227 H         1 <0>         0.1342
     43 H12        -3.6152   -2.3070    0.0048 H         1 <0>         0.1336
     44 H13        -1.4997   -1.0593   -0.0069 H         1 <0>         0.1241
     45 H14         0.0021   -0.0041    0.0020 H         1 <0>         0.3980
     46 H15         3.1563    1.4940   -0.0201 H         1 <0>         0.4584
     47 H16         1.5086   -0.8996   -0.0172 H         1 <0>         0.4188
     48 H17         3.0383   -2.9431    0.8473 H         1 <0>         0.1058
     49 H18         3.0213   -2.9335   -0.9326 H         1 <0>         0.1058
     50 H19         2.9968   -4.8341   -0.0525 H         1 <0>         0.1368
     51 H20         3.3563   -7.2689   -0.0695 H         1 <0>         0.1345
     52 H21         7.5767   -6.6545   -0.1094 H         1 <0>         0.1416
     53 H22         5.7470   -8.9534   -1.1313 H         1 <0>         0.0737
     54 H23         6.6431   -8.8344    0.4020 H         1 <0>         0.0698
     55 H24         4.8818   -9.0908    0.4181 H         1 <0>         0.0698
@<TRIPOS>BOND
     1    1    2 1
     2    1   32 1
     3    1   33 1
     4    1   34 1
     5    2    3 1
     6    2   35 1
     7    2   36 1
     8    3    4 1
     9    4    5 1
    10    4   37 1
    11    4   38 1
    12    5    6 1
    13    5   39 1
    14    5   40 1
    15    6    7 1
    16    7   12 ar
    17    7    8 ar
    18    8    9 ar
    19    8   41 1
    20    9   10 ar
    21    9   42 1
    22   10   11 ar
    23   10   43 1
    24   11   12 ar
    25   11   44 1
    26   12   13 1
    27   13   14 2
    28   13   15 am
    29   15   16 1
    30   15   45 1
    31   16   17 2
    32   16   18 1
    33   18   19 1
    34   18   46 1
    35   19   20 am
    36   19   47 1
    37   20   21 2
    38   20   22 1
    39   22   23 1
    40   22   48 1
    41   22   49 1
    42   23   24 1
    43   24   29 ar
    44   24   25 ar
    45   25   26 ar
    46   25   50 1
    47   26   27 ar
    48   26   51 1
    49   27   28 ar
    50   27   31 1
    51   28   29 ar
    52   28   52 1
    53   29   30 1
    54   31   53 1
    55   31   54 1
    56   31   55 1
@<TRIPOS>MOLECULE
ZINC13983649
   62    63     0     0     0
SMALL
USER_CHARGES
(E)-3-(3,4-dimethoxyphenyl)-N-[[[2-(4-sec-butylphenoxy)acetyl]amino]carbamothioyl]prop-2-enamide
@<TRIPOS>ATOM
      1 C1          6.2416   13.7053    1.3301 C.3       1 <0>        -0.1560
      2 C2          5.9545   12.2041    1.2602 C.3       1 <0>        -0.1160
      3 C3          6.5988   11.6196    0.0016 C.3       1 <0>        -0.0508
      4 H1          7.6620   11.8596   -0.0073 H         1 <0>         0.0787
      5 C4          5.9306   12.2176   -1.2381 C.3       1 <0>        -0.1466
      6 C5          6.4216   10.1231   -0.0048 C.ar      1 <0>        -0.1072
      7 C6          7.5302    9.2969   -0.0199 C.ar      1 <0>        -0.0756
      8 C7          7.3705    7.9247   -0.0258 C.ar      1 <0>        -0.1397
      9 C8          6.0964    7.3758   -0.0165 C.ar      1 <0>         0.1196
     10 C9          4.9856    8.2070   -0.0072 C.ar      1 <0>        -0.2067
     11 C10         5.1508    9.5785    0.0049 C.ar      1 <0>        -0.0740
     12 O1          5.9366    6.0263   -0.0223 O.3       1 <0>        -0.2889
     13 C11         4.5960    5.5317   -0.0121 C.3       1 <0>         0.0543
     14 C12         4.6164    4.0248   -0.0204 C.2       1 <0>         0.5218
     15 O2          5.6748    3.4328   -0.0337 O.2       1 <0>        -0.4884
     16 N1          3.4585    3.3351   -0.0131 N.am      1 <0>        -0.5506
     17 N2          3.4775    1.9343   -0.0208 N.pl3     1 <0>        -0.4564
     18 C13         2.3196    1.2446   -0.0134 C.2       1 <0>         0.5163
     19 S1          2.3429   -0.4672   -0.0228 S.2       1 <0>        -0.4536
     20 N3          1.1435    1.9025    0.0014 N.am      1 <0>        -0.6427
     21 C14        -0.0144    1.2128    0.0087 C.2       1 <0>         0.5268
     22 O3          0.0021   -0.0041    0.0020 O.2       1 <0>        -0.4107
     23 C15        -1.2897    1.9262    0.0186 C.2       1 <0>        -0.2334
     24 C16        -2.4501    1.2350    0.0204 C.2       1 <0>         0.0160
     25 C17        -3.7328    1.9525    0.0304 C.ar      1 <0>        -0.0862
     26 C18        -3.7541    3.3520    0.0381 C.ar      1 <0>        -0.0884
     27 C19        -4.9576    4.0219    0.0475 C.ar      1 <0>        -0.1795
     28 C20        -6.1514    3.3124    0.0489 C.ar      1 <0>         0.1209
     29 C21        -6.1385    1.9180    0.0412 C.ar      1 <0>         0.0978
     30 C22        -4.9366    1.2382    0.0264 C.ar      1 <0>        -0.1427
     31 O4         -7.3101    1.2274    0.0426 O.3       1 <0>        -0.3046
     32 C23        -7.2224   -0.1989    0.0345 C.3       1 <0>         0.0230
     33 O5         -7.3350    3.9785    0.0572 O.3       1 <0>        -0.3017
     34 C24        -7.2758    5.4063    0.0643 C.3       1 <0>         0.0236
     35 H2          7.3188   13.8680    1.3643 H         1 <0>         0.0547
     36 H3          5.8279   14.1957    0.4489 H         1 <0>         0.0575
     37 H4          5.7826   14.1216    2.2267 H         1 <0>         0.0547
     38 H5          4.8772   12.0414    1.2260 H         1 <0>         0.0623
     39 H6          6.3682   11.7137    2.1414 H         1 <0>         0.0629
     40 H7          6.0587   13.3000   -1.2335 H         1 <0>         0.0616
     41 H8          6.3896   11.8012   -2.1348 H         1 <0>         0.0558
     42 H9          4.8674   11.9775   -1.2292 H         1 <0>         0.0553
     43 H10         8.5219    9.7247   -0.0274 H         1 <0>         0.1314
     44 H11         8.2367    7.2798   -0.0372 H         1 <0>         0.1339
     45 H12         3.9927    7.7821   -0.0046 H         1 <0>         0.1267
     46 H13         4.2864   10.2259    0.0166 H         1 <0>         0.1257
     47 H14         4.0688    5.8927   -0.8952 H         1 <0>         0.1034
     48 H15         4.0858    5.8832    0.8847 H         1 <0>         0.1034
     49 H16         2.6120    3.8086   -0.0024 H         1 <0>         0.4205
     50 H17         4.3240    1.4608   -0.0314 H         1 <0>         0.4585
     51 H18         1.1303    2.8724    0.0067 H         1 <0>         0.4027
     52 H19        -1.3044    3.0060    0.0246 H         1 <0>         0.1330
     53 H20        -2.4355    0.1551    0.0144 H         1 <0>         0.1412
     54 H21        -2.8273    3.9064    0.0363 H         1 <0>         0.1329
     55 H22        -4.9729    5.1017    0.0534 H         1 <0>         0.1410
     56 H23        -4.9254    0.1584    0.0160 H         1 <0>         0.1440
     57 H24        -6.6911   -0.5252   -0.8596 H         1 <0>         0.0576
     58 H25        -6.6833   -0.5348    0.9203 H         1 <0>         0.0576
     59 H26        -8.2258   -0.6246    0.0366 H         1 <0>         0.1041
     60 H27        -6.7436    5.7435    0.9538 H         1 <0>         0.0576
     61 H28        -6.7511    5.7526   -0.8261 H         1 <0>         0.0576
     62 H29        -8.2875    5.8118    0.0706 H         1 <0>         0.1041
@<TRIPOS>BOND
     1    1    2 1
     2    1   35 1
     3    1   36 1
     4    1   37 1
     5    2    3 1
     6    2   38 1
     7    2   39 1
     8    3    4 1
     9    3    5 1
    10    3    6 1
    11    5   40 1
    12    5   41 1
    13    5   42 1
    14    6   11 ar
    15    6    7 ar
    16    7    8 ar
    17    7   43 1
    18    8    9 ar
    19    8   44 1
    20    9   10 ar
    21    9   12 1
    22   10   11 ar
    23   10   45 1
    24   11   46 1
    25   12   13 1
    26   13   14 1
    27   13   47 1
    28   13   48 1
    29   14   15 2
    30   14   16 am
    31   16   17 1
    32   16   49 1
    33   17   18 1
    34   17   50 1
    35   18   19 2
    36   18   20 1
    37   20   21 am
    38   20   51 1
    39   21   22 2
    40   21   23 1
    41   23   24 2
    42   23   52 1
    43   24   25 1
    44   24   53 1
    45   25   30 ar
    46   25   26 ar
    47   26   27 ar
    48   26   54 1
    49   27   28 ar
    50   27   55 1
    51   28   29 ar
    52   28   33 1
    53   29   30 ar
    54   29   31 1
    55   30   56 1
    56   31   32 1
    57   32   57 1
    58   32   58 1
    59   32   59 1
    60   33   34 1
    61   34   60 1
    62   34   61 1
    63   34   62 1
@<TRIPOS>MOLECULE
ZINC21285736
   67    68     0     0     0
SMALL
USER_CHARGES
(E)-N-(6-amino-1-isobutyl-2,4-dioxo-pyrimidin-5-yl)-3-[4-(difluoromethoxy)-3-ethoxy-phenyl]-N-isobutyl-prop-2-enamide
@<TRIPOS>ATOM
      1 C1         12.4922    2.7347    0.4002 C.3       1 <0>        -0.1541
      2 C2         11.0289    3.1806    0.3755 C.3       1 <0>         0.0491
      3 O1         10.9587    4.5951    0.5662 O.3       1 <0>        -0.3039
      4 C3          9.7201    5.1568    0.5706 C.ar      1 <0>         0.1202
      5 C4          8.6021    4.3641    0.4010 C.ar      1 <0>        -0.1545
      6 C5          7.3294    4.9464    0.4009 C.ar      1 <0>        -0.0563
      7 C6          7.1963    6.3274    0.5838 C.ar      1 <0>        -0.0988
      8 C7          8.3166    7.1099    0.7575 C.ar      1 <0>        -0.1549
      9 C8          9.5792    6.5321    0.7518 C.ar      1 <0>         0.0867
     10 O2         10.6802    7.3088    0.9237 O.3       1 <0>        -0.3058
     11 C9         10.4640    8.7097    1.1045 C.3       1 <0>         0.4073
     12 F1          9.8090    9.2291   -0.0173 F         1 <0>        -0.1994
     13 F2          9.6764    8.9171    2.2419 F         1 <0>        -0.1988
     14 C10         6.1355    4.1089    0.2151 C.2       1 <0>        -0.0190
     15 C11         4.9088    4.6717    0.2208 C.2       1 <0>        -0.2100
     16 C12         3.7211    3.8386    0.0360 C.2       1 <0>         0.5554
     17 O3          3.8390    2.6370   -0.1230 O.2       1 <0>        -0.5192
     18 N1          2.4961    4.4006    0.0417 N.am      1 <0>        -0.5204
     19 C13         2.3588    5.8570    0.1208 C.3       1 <0>         0.1007
     20 C14         2.2304    6.2784    1.5860 C.3       1 <0>        -0.1112
     21 C15         2.2481    7.8053    1.6810 C.3       1 <0>        -0.1487
     22 C16         0.9136    5.7472    2.1559 C.3       1 <0>        -0.1482
     23 C17         1.3466    3.5868   -0.0284 C.2       1 <0>        -0.1486
     24 C18         0.4614    3.7112   -1.0800 C.2       1 <0>         0.4839
     25 N2         -0.6507    2.9028   -1.1208 N.am      1 <0>        -0.5377
     26 C19        -0.8760    2.0052   -0.1444 C.2       1 <0>         0.7117
     27 O4         -1.8679    1.3035   -0.1960 O.2       1 <0>        -0.5365
     28 N3         -0.0219    1.8659    0.8850 N.am      1 <0>        -0.6767
     29 H1         -0.2211    1.1191    1.6677 H         1 <0>         0.4603
     30 C20         1.0824    2.6330    0.9727 C.2       1 <0>         0.5694
     31 O5          1.8479    2.5016    1.9127 O.2       1 <0>        -0.5145
     32 C21        -1.5987    3.0242   -2.2311 C.3       1 <0>         0.1082
     33 C22        -1.1842    2.0797   -3.3612 C.3       1 <0>        -0.1136
     34 C23        -1.3028    0.6308   -2.8843 C.3       1 <0>        -0.1446
     35 C24        -2.0994    2.2959   -4.5681 C.3       1 <0>        -0.1477
     36 N4          0.6888    4.6318   -2.0749 N.pl3     1 <0>        -0.8596
     37 H2         12.5462    1.6459    0.2534 H         1 <0>         0.0813
     38 H3         12.9389    2.9965    1.3707 H         1 <0>         0.0681
     39 H4         13.0435    3.2412   -0.4058 H         1 <0>         0.0679
     40 H5         10.5822    2.9188   -0.5950 H         1 <0>         0.0651
     41 H6         10.4776    2.6741    1.1814 H         1 <0>         0.0656
     42 H7          8.7097    3.2981    0.2647 H         1 <0>         0.1445
     43 H8          6.2155    6.7796    0.5890 H         1 <0>         0.1358
     44 H9          8.2127    8.1755    0.8990 H         1 <0>         0.1442
     45 H10        11.4213    9.2359    1.2335 H         1 <0>         0.1869
     46 H11         6.2420    3.0235    0.0714 H         1 <0>         0.1405
     47 H12         4.8023    5.7571    0.3644 H         1 <0>         0.1345
     48 H13         3.2462    6.3335   -0.3213 H         1 <0>         0.0889
     49 H14         1.4606    6.1712   -0.4311 H         1 <0>         0.0797
     50 H15         3.0721    5.8655    2.1614 H         1 <0>         0.0786
     51 H16         2.1558    8.1082    2.7344 H         1 <0>         0.0604
     52 H17         1.4064    8.2182    1.1056 H         1 <0>         0.0557
     53 H18         3.1948    8.1872    1.2713 H         1 <0>         0.0566
     54 H19         0.8213    6.0502    3.2093 H         1 <0>         0.0533
     55 H20         0.9009    4.6494    2.0876 H         1 <0>         0.0646
     56 H21         0.0720    6.1602    1.5805 H         1 <0>         0.0471
     57 H22        -2.6076    2.7584   -1.8825 H         1 <0>         0.1130
     58 H23        -1.5996    4.0602   -2.6008 H         1 <0>         0.0906
     59 H24        -0.1429    2.2869   -3.6489 H         1 <0>         0.0748
     60 H25        -1.0048   -0.0482   -3.6968 H         1 <0>         0.0560
     61 H26        -2.3441    0.4236   -2.5966 H         1 <0>         0.0667
     62 H27        -0.6448    0.4754   -2.0166 H         1 <0>         0.0509
     63 H28        -1.8014    1.6168   -5.3805 H         1 <0>         0.0653
     64 H29        -2.0141    3.3376   -4.9110 H         1 <0>         0.0579
     65 H30        -3.1407    2.0887   -4.2804 H         1 <0>         0.0628
     66 H31        -0.0209    4.7256   -2.9101 H         1 <0>         0.4264
     67 H32         1.5805    5.2748   -2.0359 H         1 <0>         0.4461
@<TRIPOS>BOND
     1    1    2 1
     2    1   37 1
     3    1   38 1
     4    1   39 1
     5    2    3 1
     6    2   40 1
     7    2   41 1
     8    3    4 1
     9    4    9 ar
    10    4    5 ar
    11    5    6 ar
    12    5   42 1
    13    6    7 ar
    14    6   14 1
    15    7    8 ar
    16    7   43 1
    17    8    9 ar
    18    8   44 1
    19    9   10 1
    20   10   11 1
    21   11   12 1
    22   11   13 1
    23   11   45 1
    24   14   15 2
    25   14   46 1
    26   15   16 1
    27   15   47 1
    28   16   17 2
    29   16   18 am
    30   18   19 1
    31   18   23 1
    32   19   20 1
    33   19   48 1
    34   19   49 1
    35   20   21 1
    36   20   22 1
    37   20   50 1
    38   21   51 1
    39   21   52 1
    40   21   53 1
    41   22   54 1
    42   22   55 1
    43   22   56 1
    44   23   30 1
    45   23   24 2
    46   24   25 1
    47   24   36 1
    48   25   26 am
    49   25   32 1
    50   26   27 2
    51   26   28 am
    52   28   29 1
    53   28   30 am
    54   30   31 2
    55   32   33 1
    56   32   57 1
    57   32   58 1
    58   33   34 1
    59   33   35 1
    60   33   59 1
    61   34   60 1
    62   34   61 1
    63   34   62 1
    64   35   63 1
    65   35   64 1
    66   35   65 1
    67   36   66 1
    68   36   67 1
@<TRIPOS>MOLECULE
ZINC35711537
   66    67     0     0     0
SMALL
USER_CHARGES

@<TRIPOS>ATOM
      1 C1          2.8090    2.7211   -5.7965 C.3       1 <0>        -0.1532
      2 C2          2.8921    1.2853   -6.3185 C.3       1 <0>        -0.1221
      3 C3          2.6628    0.3086   -5.1634 C.3       1 <0>        -0.1317
      4 C4          2.7459   -1.1272   -5.6854 C.3       1 <0>         0.1359
      5 N1          2.5263   -2.0624   -4.5793 N.am      1 <0>        -0.7432
      6 C5          2.5544   -3.3909   -4.8045 C.2       1 <0>         0.7028
      7 O1          2.7620   -3.8132   -5.9256 O.2       1 <0>        -0.5702
      8 N2          2.3523   -4.2513   -3.7870 N.am      1 <0>        -0.6867
      9 C6          2.3039   -5.6279   -4.0338 C.ar      1 <0>         0.1659
     10 C7          1.4325   -6.4338   -3.3130 C.ar      1 <0>        -0.1297
     11 C8          1.3868   -7.7921   -3.5593 C.ar      1 <0>        -0.0481
     12 C9          2.2076   -8.3496   -4.5224 C.ar      1 <0>        -0.1269
     13 C10         3.0768   -7.5499   -5.2415 C.ar      1 <0>        -0.0819
     14 C11         3.1232   -6.1901   -5.0040 C.ar      1 <0>        -0.1221
     15 C12         2.1551   -9.8320   -4.7886 C.3       1 <0>         0.2418
     16 H1          1.7074  -10.3110   -3.9178 H         1 <0>         0.0882
     17 C13         1.2370  -10.0619   -5.9719 C.2       1 <0>        -0.2835
     18 C14         1.7479  -10.6939   -7.0504 C.2       1 <0>         0.2594
     19 N3          3.0481  -11.1110   -7.0725 N.am      1 <0>        -0.5384
     20 C15         3.9020  -10.9342   -6.0565 C.2       1 <0>         0.7046
     21 O2          5.0421  -11.3404   -6.1692 O.2       1 <0>        -0.5604
     22 N4          3.5388  -10.3200   -4.9139 N.am      1 <0>        -0.7111
     23 C16         3.5357  -11.7906   -8.2752 C.3       1 <0>         0.0990
     24 C17         3.9591  -10.7493   -9.3132 C.3       1 <0>        -0.1429
     25 C18         4.4685  -11.4591  -10.5692 C.3       1 <0>        -0.1492
     26 C19         0.8689  -10.9433   -8.2488 C.3       1 <0>        -0.1310
     27 C20        -0.1097   -9.6297   -5.9474 C.2       1 <0>         0.5377
     28 O3         -0.8460   -9.8795   -6.8834 O.2       1 <0>        -0.5209
     29 O4         -0.5779   -8.9402   -4.8861 O.3       1 <0>        -0.3340
     30 C21        -1.9476   -8.5351   -4.9286 C.3       1 <0>         0.0697
     31 C22        -2.2936   -7.7717   -3.6486 C.3       1 <0>         0.0622
     32 O5         -1.5416   -6.5576   -3.6001 O.3       1 <0>        -0.3737
     33 C23        -1.7918   -5.7650   -2.4376 C.3       1 <0>         0.0293
     34 H2          1.8233    2.8942   -5.3646 H         1 <0>         0.0545
     35 H3          3.5721    2.8751   -5.0336 H         1 <0>         0.0546
     36 H4          2.9724    3.4170   -6.6195 H         1 <0>         0.0570
     37 H5          2.1290    1.1314   -7.0815 H         1 <0>         0.0660
     38 H6          3.8778    1.1122   -6.7504 H         1 <0>         0.0660
     39 H7          3.4259    0.4626   -4.4005 H         1 <0>         0.0693
     40 H8          1.6771    0.4817   -4.7315 H         1 <0>         0.0693
     41 H9          1.9828   -1.2811   -6.4483 H         1 <0>         0.0681
     42 H10         3.7316   -1.3003   -6.1173 H         1 <0>         0.0679
     43 H11         2.3607   -1.7254   -3.6850 H         1 <0>         0.3969
     44 H12         2.2405   -3.9163   -2.8835 H         1 <0>         0.4046
     45 H13         0.7914   -5.9990   -2.5604 H         1 <0>         0.1214
     46 H14         0.7095   -8.4194   -2.9989 H         1 <0>         0.1263
     47 H15         3.7168   -7.9883   -5.9928 H         1 <0>         0.1120
     48 H16         3.7988   -5.5653   -5.5693 H         1 <0>         0.1346
     49 H17         4.1744  -10.2018   -4.1907 H         1 <0>         0.4323
     50 H18         4.3909  -12.4156   -8.0179 H         1 <0>         0.1077
     51 H19         2.7419  -12.4131   -8.6880 H         1 <0>         0.0952
     52 H20         3.1040  -10.1243   -9.5705 H         1 <0>         0.0687
     53 H21         4.7530  -10.1268   -8.9004 H         1 <0>         0.0709
     54 H22         5.3236  -12.0841  -10.3119 H         1 <0>         0.0600
     55 H23         3.6746  -12.0815  -10.9820 H         1 <0>         0.0582
     56 H24         4.7701  -10.7172  -11.3087 H         1 <0>         0.0621
     57 H25         0.4426   -9.9997   -8.5894 H         1 <0>         0.1062
     58 H26         1.4629  -11.3837   -9.0497 H         1 <0>         0.0763
     59 H27         0.0656  -11.6268   -7.9742 H         1 <0>         0.1039
     60 H28        -2.1088   -7.8892   -5.7917 H         1 <0>         0.0752
     61 H29        -2.5846   -9.4158   -5.0099 H         1 <0>         0.0820
     62 H30        -3.3587   -7.5400   -3.6404 H         1 <0>         0.0700
     63 H31        -2.0487   -8.3857   -2.7819 H         1 <0>         0.0606
     64 H32        -2.8465   -5.4917   -2.4043 H         1 <0>         0.0407
     65 H33        -1.5365   -6.3374   -1.5458 H         1 <0>         0.0425
     66 H34        -1.1833   -4.8615   -2.4760 H         1 <0>         0.0833
@<TRIPOS>BOND
     1    1    2 1
     2    1   34 1
     3    1   35 1
     4    1   36 1
     5    2    3 1
     6    2   37 1
     7    2   38 1
     8    3    4 1
     9    3   39 1
    10    3   40 1
    11    4    5 1
    12    4   41 1
    13    4   42 1
    14    5    6 am
    15    5   43 1
    16    6    7 2
    17    6    8 am
    18    8    9 1
    19    8   44 1
    20    9   14 ar
    21    9   10 ar
    22   10   11 ar
    23   10   45 1
    24   11   12 ar
    25   11   46 1
    26   12   13 ar
    27   12   15 1
    28   13   14 ar
    29   13   47 1
    30   14   48 1
    31   15   16 1
    32   15   22 1
    33   15   17 1
    34   17   18 2
    35   17   27 1
    36   18   19 1
    37   18   26 1
    38   19   20 am
    39   19   23 1
    40   20   21 2
    41   20   22 am
    42   22   49 1
    43   23   24 1
    44   23   50 1
    45   23   51 1
    46   24   25 1
    47   24   52 1
    48   24   53 1
    49   25   54 1
    50   25   55 1
    51   25   56 1
    52   26   57 1
    53   26   58 1
    54   26   59 1
    55   27   28 2
    56   27   29 1
    57   29   30 1
    58   30   31 1
    59   30   60 1
    60   30   61 1
    61   31   32 1
    62   31   62 1
    63   31   63 1
    64   32   33 1
    65   33   64 1
    66   33   65 1
    67   33   66 1
@<TRIPOS>MOLECULE
ZINC65742748
   67    68     0     0     0
SMALL
USER_CHARGES

@<TRIPOS>ATOM
      1 C1         -0.0184    1.5028    0.0103 C.3       1 <0>        -0.1173
      2 C2          0.0021   -0.0041    0.0020 C.ar      1 <0>        -0.0525
      3 C3          0.0057   -0.6883   -1.1997 C.ar      1 <0>        -0.1551
      4 C4          0.0244   -2.0706   -1.2107 C.ar      1 <0>        -0.0799
      5 C5          0.0391   -2.7719   -0.0203 C.ar      1 <0>        -0.1238
      6 C6          0.0355   -2.0879    1.1864 C.ar      1 <0>         0.1328
      7 C7          0.0229   -0.7004    1.1947 C.ar      1 <0>        -0.2070
      8 O1          0.0500   -2.7755    2.3585 O.3       1 <0>        -0.3113
      9 C8          0.0452   -2.0055    3.5624 C.3       1 <0>         0.0593
     10 C9          0.0632   -2.9458    4.7692 C.3       1 <0>        -0.1199
     11 C10         0.0581   -2.1215    6.0581 C.3       1 <0>        -0.1000
     12 C11         0.0761   -3.0618    7.2650 C.3       1 <0>        -0.0472
     13 C12        -1.1615   -3.9607    7.2296 C.3       1 <0>        -0.1453
     14 C13         1.3367   -3.9275    7.2182 C.3       1 <0>        -0.1478
     15 C14         0.0710   -2.2498    8.5345 C.2       1 <0>         0.4663
     16 O2          0.0548   -1.0429    8.4797 O.2       1 <0>        -0.4877
     17 O3          0.0847   -2.8674    9.7262 O.3       1 <0>        -0.3389
     18 C15         0.0789   -2.0355   10.8881 C.3       1 <0>         0.2301
     19 H1         -0.7722   -1.3559   10.8444 H         1 <0>         0.1216
     20 C16        -0.0290   -2.9089   12.1408 C.3       1 <0>         0.0612
     21 H2         -0.0743   -2.2734   13.0252 H         1 <0>         0.1059
     22 C17         1.2001   -3.8189   12.2267 C.3       1 <0>         0.1278
     23 H3          1.1573   -4.4038   13.1456 H         1 <0>         0.0881
     24 C18         2.4637   -2.9530   12.2289 C.3       1 <0>         0.0943
     25 H4          3.3449   -3.5945   12.2341 H         1 <0>         0.1004
     26 C19         2.4753   -2.0779   10.9728 C.3       1 <0>         0.0693
     27 H5          2.5111   -2.7130   10.0876 H         1 <0>         0.1187
     28 O4          1.2904   -1.2794   10.9389 O.3       1 <0>        -0.3367
     29 C20         3.6858   -1.1805   10.9967 C.2       1 <0>         0.4596
     30 O5          3.5483    0.0173   11.0762 O.2       1 <0>        -0.4681
     31 O6          4.9166   -1.7118   10.9296 O.3       1 <0>        -0.3442
     32 C21         6.0183   -0.8021   10.9573 C.3       1 <0>         0.0930
     33 C22         7.3096   -1.5744   10.8733 C.2       1 <0>        -0.1643
     34 C23         8.2621   -1.1724   10.0688 C.2       1 <0>        -0.1612
     35 O7          2.4711   -2.1220   13.3914 O.3       1 <0>        -0.5457
     36 O8          1.2233   -4.6986   11.1008 O.3       1 <0>        -0.5430
     37 O9         -1.2116   -3.7076   12.0657 O.3       1 <0>        -0.5480
     38 C24         0.0585   -4.2788   -0.0330 C.3       1 <0>        -0.1045
     39 H6          1.0042    1.8801    0.0026 H         1 <0>         0.0725
     40 H7         -0.5455    1.8639   -0.8728 H         1 <0>         0.0691
     41 H8         -0.5286    1.8543    0.9071 H         1 <0>         0.0659
     42 H9         -0.0065   -0.1419   -2.1312 H         1 <0>         0.1233
     43 H10         0.0272   -2.6027   -2.1505 H         1 <0>         0.1289
     44 H11         0.0248   -0.1655    2.1329 H         1 <0>         0.1266
     45 H12         0.9269   -1.3651    3.5876 H         1 <0>         0.0624
     46 H13        -0.8529   -1.3888    3.5957 H         1 <0>         0.0626
     47 H14        -0.8185   -3.5862    4.7440 H         1 <0>         0.0814
     48 H15         0.9613   -3.5626    4.7359 H         1 <0>         0.0812
     49 H16         0.9398   -1.4811    6.0833 H         1 <0>         0.0753
     50 H17        -0.8400   -1.5047    6.0914 H         1 <0>         0.0761
     51 H18        -1.1579   -4.5480    6.3113 H         1 <0>         0.0774
     52 H19        -1.1487   -4.6306    8.0893 H         1 <0>         0.0740
     53 H20        -2.0596   -3.3440    7.2629 H         1 <0>         0.0604
     54 H21         2.2184   -3.2871    7.2434 H         1 <0>         0.0580
     55 H22         1.3495   -4.5974    8.0780 H         1 <0>         0.0782
     56 H23         1.3404   -4.5148    6.3000 H         1 <0>         0.0776
     57 H24         5.9473   -0.1197   10.1103 H         1 <0>         0.0765
     58 H25         5.9956   -0.2321   11.8861 H         1 <0>         0.0822
     59 H26         7.4498   -2.4593   11.4765 H         1 <0>         0.1234
     60 H27         8.1219   -0.2876    9.4657 H         1 <0>         0.1011
     61 H28         9.1876   -1.7259   10.0086 H         1 <0>         0.1120
     62 H29         3.2447   -1.5456   13.4579 H         1 <0>         0.3881
     63 H30         0.4481   -5.2728   11.0343 H         1 <0>         0.3975
     64 H31        -2.0293   -3.1949   12.0046 H         1 <0>         0.3891
     65 H32         1.0908   -4.6288   -0.0409 H         1 <0>         0.0670
     66 H33        -0.4463   -4.6561    0.8563 H         1 <0>         0.0692
     67 H34        -0.4549   -4.6412   -0.9236 H         1 <0>         0.0641
@<TRIPOS>BOND
     1    1    2 1
     2    1   39 1
     3    1   40 1
     4    1   41 1
     5    2    7 ar
     6    2    3 ar
     7    3    4 ar
     8    3   42 1
     9    4    5 ar
    10    4   43 1
    11    5    6 ar
    12    5   38 1
    13    6    7 ar
    14    6    8 1
    15    7   44 1
    16    8    9 1
    17    9   10 1
    18    9   45 1
    19    9   46 1
    20   10   11 1
    21   10   47 1
    22   10   48 1
    23   11   12 1
    24   11   49 1
    25   11   50 1
    26   12   13 1
    27   12   14 1
    28   12   15 1
    29   13   51 1
    30   13   52 1
    31   13   53 1
    32   14   54 1
    33   14   55 1
    34   14   56 1
    35   15   16 2
    36   15   17 1
    37   17   18 1
    38   18   19 1
    39   18   28 1
    40   18   20 1
    41   20   21 1
    42   20   22 1
    43   20   37 1
    44   22   23 1
    45   22   24 1
    46   22   36 1
    47   24   25 1
    48   24   26 1
    49   24   35 1
    50   26   27 1
    51   26   28 1
    52   26   29 1
    53   29   30 2
    54   29   31 1
    55   31   32 1
    56   32   33 1
    57   32   57 1
    58   32   58 1
    59   33   34 2
    60   33   59 1
    61   34   60 1
    62   34   61 1
    63   35   62 1
    64   36   63 1
    65   37   64 1
    66   38   65 1
    67   38   66 1
    68   38   67 1
@<TRIPOS>MOLECULE
ZINC13246426
   54    55     0     0     0
SMALL
USER_CHARGES
2-bromo-5-[[4-(2-diethylaminoethylcarbamoyl)phenyl]sulfamoyl]benzoic acid
@<TRIPOS>ATOM
      1 C1          7.1775   -4.6823    5.3148 C.3       1 <0>        -0.1869
      2 C2          6.6625   -4.8176    6.7491 C.3       1 <0>        -0.0164
      3 C3          8.0510   -2.9827    7.5026 C.3       1 <0>        -0.0117
      4 C4          8.8247   -3.7853    8.5505 C.3       1 <0>        -0.1878
      5 C5          5.8083   -2.5526    6.6975 C.3       1 <0>        -0.0252
      6 C6          4.3523   -3.0039    6.8283 C.3       1 <0>         0.0977
      7 N1          3.4826   -2.0573    6.1257 N.am      1 <0>        -0.7330
      8 C7          2.1494   -2.2537    6.1062 C.2       1 <0>         0.5745
      9 O1          1.6684   -3.2167    6.6718 O.2       1 <0>        -0.5227
     10 C8          1.2736   -1.3005    5.3987 C.ar      1 <0>        -0.1479
     11 C9         -0.1095   -1.5028    5.3776 C.ar      1 <0>        -0.0438
     12 C10        -0.9238   -0.6116    4.7171 C.ar      1 <0>        -0.1123
     13 C11        -0.3716    0.4907    4.0704 C.ar      1 <0>         0.1717
     14 C12         1.0059    0.6919    4.0848 C.ar      1 <0>        -0.1176
     15 C13         1.8250   -0.1927    4.7483 C.ar      1 <0>        -0.0763
     16 N2         -1.1971    1.3894    3.4039 N.pl3     1 <0>        -1.0695
     17 S1         -2.1181    2.4630    4.2650 S.o2      1 <0>         2.6888
     18 O2         -2.8069    3.2621    3.3130 O.2       1 <0>        -0.9383
     19 O3         -2.7966    1.7091    5.2602 O.2       1 <0>        -0.9481
     20 C14        -1.0090    3.5363    5.1151 C.ar      1 <0>        -0.6854
     21 C15        -0.5282    3.1832    6.3642 C.ar      1 <0>        -0.0230
     22 C16         0.3471    4.0165    7.0365 C.ar      1 <0>        -0.1299
     23 C17         0.7386    5.2134    6.4695 C.ar      1 <0>        -0.0125
     24 C18         0.2524    5.5782    5.2115 C.ar      1 <0>        -0.1090
     25 C19        -0.6268    4.7283    4.5367 C.ar      1 <0>         0.0316
     26 C20         0.6664    6.8560    4.5981 C.2       1 <0>         0.4780
     27 O4          1.4313    7.5930    5.1876 O.co2     1 <0>        -0.5910
     28 Br1         1.9300    6.3551    7.3931 Br        1 <0>        -0.0097
     29 H1          6.5381   -3.9935    4.7626 H         1 <0>         0.0806
     30 H2          8.1975   -4.2985    5.3297 H         1 <0>         0.0809
     31 H3          7.1636   -5.6586    4.8302 H         1 <0>         0.1068
     32 H4          7.3021   -5.5060    7.3014 H         1 <0>         0.1318
     33 H5          5.6426   -5.2019    6.7343 H         1 <0>         0.1311
     34 H6          8.5462   -3.0747    6.5360 H         1 <0>         0.1340
     35 H7          8.0215   -1.9337    7.7974 H         1 <0>         0.1309
     36 H8          8.2901   -3.7537    9.4999 H         1 <0>         0.0806
     37 H9          8.9175   -4.8199    8.2201 H         1 <0>         0.0798
     38 H10         9.8176   -3.3542    8.6781 H         1 <0>         0.1066
     39 H11         6.0849   -2.5184    5.6437 H         1 <0>         0.1408
     40 H12         5.9220   -1.5609    7.1353 H         1 <0>         0.1387
     41 H13         4.0758   -3.0381    7.8821 H         1 <0>         0.0898
     42 H14         4.2386   -3.9956    6.3904 H         1 <0>         0.0892
     43 H15         3.8663   -1.2891    5.6745 H         1 <0>         0.4087
     44 H16        -0.5384   -2.3575    5.8794 H         1 <0>         0.1446
     45 H17        -1.9924   -0.7672    4.7008 H         1 <0>         0.1484
     46 H18         1.4317    1.5453    3.5781 H         1 <0>         0.1430
     47 H19         2.8931   -0.0334    4.7632 H         1 <0>         0.1280
     48 H20        -1.2335    1.3875    2.4346 H         1 <0>         0.4316
     49 H21        -0.8349    2.2505    6.8141 H         1 <0>         0.1381
     50 H22         0.7215    3.7329    8.0089 H         1 <0>         0.1355
     51 H23        -1.0068    5.0042    3.5641 H         1 <0>         0.1575
     52 N3          6.6702   -3.5051    7.4286 N.4       1 <0>        -0.3916
     53 H24         6.3059   -3.6207    8.3816 H         1 <0>         0.4311
     54 O5          0.1960    7.2044    3.3848 O.co2     1 <0>        -0.7409
@<TRIPOS>BOND
     1    1    2 1
     2    1   29 1
     3    1   30 1
     4    1   31 1
     5    2   32 1
     6    2   33 1
     7    2   52 1
     8    3    4 1
     9    3   34 1
    10    3   35 1
    11    3   52 1
    12    4   36 1
    13    4   37 1
    14    4   38 1
    15    5    6 1
    16    5   39 1
    17    5   40 1
    18    5   52 1
    19    6    7 1
    20    6   41 1
    21    6   42 1
    22    7    8 am
    23    7   43 1
    24    8    9 2
    25    8   10 1
    26   10   15 ar
    27   10   11 ar
    28   11   12 ar
    29   11   44 1
    30   12   13 ar
    31   12   45 1
    32   13   14 ar
    33   13   16 1
    34   14   15 ar
    35   14   46 1
    36   15   47 1
    37   16   17 1
    38   16   48 1
    39   17   18 2
    40   17   19 2
    41   17   20 1
    42   20   25 ar
    43   20   21 ar
    44   21   22 ar
    45   21   49 1
    46   22   23 ar
    47   22   50 1
    48   23   24 ar
    49   23   28 1
    50   24   25 ar
    51   24   26 1
    52   25   51 1
    53   26   27 2
    54   26   54 1
    55   52   53 1
@<TRIPOS>MOLECULE
ZINC17202273
   55    57     0     0     0
SMALL
USER_CHARGES
3,4-difluoro-N-[3-oxo-3-[N'-[2-(2-phenylphenoxy)acetyl]hydrazino]propyl]benzenesulfonamide
@<TRIPOS>ATOM
      1 C1         -4.9336    7.0272  -11.9617 C.ar      1 <0>        -0.1175
      2 C2         -5.9394    7.9600  -11.7839 C.ar      1 <0>        -0.1225
      3 C3         -5.7614    9.0123  -10.9090 C.ar      1 <0>        -0.1078
      4 C4         -4.5654    9.1342  -10.2040 C.ar      1 <0>        -0.0437
      5 C5         -3.5532    8.1947  -10.3914 C.ar      1 <0>        -0.0843
      6 C6         -3.7446    7.1430  -11.2643 C.ar      1 <0>        -0.1181
      7 C7         -4.3682   10.2631   -9.2622 C.ar      1 <0>        -0.0713
      8 C8         -4.6368   11.5682   -9.6683 C.ar      1 <0>        -0.0681
      9 C9         -4.4467   12.6156   -8.7900 C.ar      1 <0>        -0.1508
     10 C10        -3.9945   12.3739   -7.5046 C.ar      1 <0>        -0.0769
     11 C11        -3.7300   11.0827   -7.0898 C.ar      1 <0>        -0.2085
     12 C12        -3.9165   10.0215   -7.9614 C.ar      1 <0>         0.1364
     13 O1         -3.6560    8.7517   -7.5550 O.3       1 <0>        -0.2801
     14 C13        -3.1919    8.5820   -6.2142 C.3       1 <0>         0.0503
     15 C14        -2.9581    7.1178   -5.9451 C.2       1 <0>         0.5176
     16 O2         -3.1683    6.3001   -6.8158 O.2       1 <0>        -0.5062
     17 N1         -2.5155    6.7169   -4.7369 N.am      1 <0>        -0.5223
     18 N2         -2.2981    5.3557   -4.4867 N.am      1 <0>        -0.5183
     19 C15        -1.8555    4.9548   -3.2785 C.2       1 <0>         0.5208
     20 O3         -1.6453    5.7725   -2.4078 O.2       1 <0>        -0.5333
     21 C16        -1.6217    3.4906   -3.0094 C.3       1 <0>        -0.1396
     22 C17        -1.1248    3.3089   -1.5738 C.3       1 <0>         0.1278
     23 N3         -0.8975    1.8855   -1.3122 N.pl3     1 <0>        -1.1168
     24 S1         -0.0172    1.4168    0.0098 S.o2      1 <0>         2.7025
     25 O4          0.0021   -0.0041    0.0020 O.2       1 <0>        -0.9463
     26 O5          1.1718    2.1948    0.0027 O.2       1 <0>        -0.9422
     27 C18        -0.9267    1.9002    1.4394 C.ar      1 <0>        -0.6695
     28 C19        -0.7166    3.1450    2.0033 C.ar      1 <0>         0.0005
     29 C20        -1.4329    3.5286    3.1213 C.ar      1 <0>        -0.1444
     30 C21        -2.3537    2.6620    3.6843 C.ar      1 <0>         0.1278
     31 C22        -2.5603    1.4115    3.1222 C.ar      1 <0>         0.0493
     32 C23        -1.8454    1.0325    1.9992 C.ar      1 <0>        -0.0233
     33 F1         -3.4588    0.5641    3.6696 F         1 <0>        -0.1197
     34 F2         -3.0506    3.0343    4.7802 F         1 <0>        -0.1154
     35 H1         -5.0772    6.2053  -12.6475 H         1 <0>         0.1210
     36 H2         -6.8657    7.8647  -12.3310 H         1 <0>         0.1226
     37 H3         -6.5475    9.7398  -10.7706 H         1 <0>         0.1215
     38 H4         -2.6226    8.2870   -9.8513 H         1 <0>         0.1204
     39 H5         -2.9629    6.4115  -11.4065 H         1 <0>         0.1218
     40 H6         -4.9894   11.7606  -10.6708 H         1 <0>         0.1330
     41 H7         -4.6512   13.6276   -9.1071 H         1 <0>         0.1284
     42 H8         -3.8472   13.1984   -6.8227 H         1 <0>         0.1283
     43 H9         -3.3773   10.9003   -6.0854 H         1 <0>         0.1305
     44 H10        -3.9400    8.9641   -5.5196 H         1 <0>         0.1013
     45 H11        -2.2589    9.1295   -6.0807 H         1 <0>         0.1019
     46 H12        -2.3474    7.3709   -4.0405 H         1 <0>         0.4345
     47 H13        -2.4662    4.7017   -5.1831 H         1 <0>         0.4354
     48 H14        -0.8736    3.1085   -3.7039 H         1 <0>         0.1152
     49 H15        -2.5547    2.9431   -3.1429 H         1 <0>         0.1128
     50 H16        -1.8729    3.6910   -0.8792 H         1 <0>         0.0796
     51 H17        -0.1917    3.8563   -1.4402 H         1 <0>         0.0961
     52 H18        -1.2626    1.2175   -1.9134 H         1 <0>         0.4229
     53 H19         0.0049    3.8199    1.5671 H         1 <0>         0.1612
     54 H20        -1.2710    4.5029    3.5583 H         1 <0>         0.1600
     55 H21        -2.0053    0.0586    1.5606 H         1 <0>         0.1652
@<TRIPOS>BOND
     1    1    6 ar
     2    1    2 ar
     3    1   35 1
     4    2    3 ar
     5    2   36 1
     6    3    4 ar
     7    3   37 1
     8    4    5 ar
     9    4    7 1
    10    5    6 ar
    11    5   38 1
    12    6   39 1
    13    7   12 ar
    14    7    8 ar
    15    8    9 ar
    16    8   40 1
    17    9   10 ar
    18    9   41 1
    19   10   11 ar
    20   10   42 1
    21   11   12 ar
    22   11   43 1
    23   12   13 1
    24   13   14 1
    25   14   15 1
    26   14   44 1
    27   14   45 1
    28   15   16 2
    29   15   17 am
    30   17   18 1
    31   17   46 1
    32   18   19 am
    33   18   47 1
    34   19   20 2
    35   19   21 1
    36   21   22 1
    37   21   48 1
    38   21   49 1
    39   22   23 1
    40   22   50 1
    41   22   51 1
    42   23   24 1
    43   23   52 1
    44   24   25 2
    45   24   26 2
    46   24   27 1
    47   27   32 ar
    48   27   28 ar
    49   28   29 ar
    50   28   53 1
    51   29   30 ar
    52   29   54 1
    53   30   31 ar
    54   30   34 1
    55   31   32 ar
    56   31   33 1
    57   32   55 1
@<TRIPOS>MOLECULE
ZINC22163427
   63    66     0     0     0
SMALL
USER_CHARGES
[2-[[2-(cyanomethylsulfanyl)phenyl]amino]-2-oxo-ethyl] 3-(1-adamantylcarbamoylamino)propanoate
@<TRIPOS>ATOM
      1 C1         -3.7006   -0.7967    0.3986 C.ar      1 <0>        -0.0987
      2 C2         -4.7704   -0.2558   -0.2911 C.ar      1 <0>        -0.1118
      3 C3         -4.6594    0.9888   -0.8812 C.ar      1 <0>        -0.1143
      4 C4         -3.4717    1.7000   -0.7823 C.ar      1 <0>        -0.1174
      5 C5         -2.3929    1.1542   -0.0861 C.ar      1 <0>         0.1760
      6 C6         -2.5119   -0.0977    0.4978 C.ar      1 <0>        -0.1048
      7 N1         -1.1906    1.8667    0.0178 N.am      1 <0>        -0.6809
      8 C7         -0.0146    1.2082    0.0153 C.2       1 <0>         0.5216
      9 O1          0.0013   -0.0046    0.0051 O.2       1 <0>        -0.4967
     10 C8          1.2804    1.9788    0.0190 C.3       1 <0>         0.0475
     11 O2          2.3964    1.0499    0.0088 O.3       1 <0>        -0.3320
     12 C9          3.6299    1.5792    0.0106 C.2       1 <0>         0.4701
     13 O3          3.7725    2.7790    0.0204 O.2       1 <0>        -0.4971
     14 C10         4.8370    0.6771    0.0003 C.3       1 <0>        -0.1251
     15 C11         6.1091    1.5272    0.0047 C.3       1 <0>         0.1533
     16 N2          7.2825    0.6502   -0.0052 N.am      1 <0>        -0.7613
     17 C12         8.5211    1.1816   -0.0034 C.2       1 <0>         0.7096
     18 O4          8.6645    2.3890    0.0065 O.2       1 <0>        -0.5854
     19 N3          9.6006    0.3748   -0.0126 N.am      1 <0>        -0.7511
     20 C13        10.9469    0.9525   -0.0106 C.3       1 <0>         0.2076
     21 C14        11.1284    1.8270   -1.2529 C.3       1 <0>        -0.1233
     22 C15        12.5345    2.4303   -1.2509 C.3       1 <0>        -0.0831
     23 C16        13.5720    1.3059   -1.2626 C.3       1 <0>        -0.1119
     24 C17        13.3904    0.4314   -0.0203 C.3       1 <0>        -0.0806
     25 C18        11.9844   -0.1719   -0.0224 C.3       1 <0>        -0.1137
     26 C19        13.5774    1.2848    1.2358 C.3       1 <0>        -0.1119
     27 C20        12.5399    2.4092    1.2475 C.3       1 <0>        -0.0831
     28 C21        12.7214    3.2836    0.0052 C.3       1 <0>        -0.1100
     29 C22        11.1339    1.8059    1.2455 C.3       1 <0>        -0.1233
     30 S1         -3.3266    3.2870   -1.5341 S.3       1 <0>        -0.0740
     31 C23        -4.9477    3.5590   -2.3012 C.3       1 <0>        -0.0216
     32 C24        -4.9592    4.8689   -2.9726 C.1       1 <0>         0.2126
     33 N4         -4.9681    5.8799   -3.4907 N.1       1 <0>        -0.3903
     34 H1         -3.7925   -1.7701    0.8573 H         1 <0>         0.1317
     35 H2         -5.6953   -0.8080   -0.3689 H         1 <0>         0.1307
     36 H3         -5.4966    1.4079   -1.4196 H         1 <0>         0.1298
     37 H4         -1.6772   -0.5253    1.0333 H         1 <0>         0.1463
     38 H5         -1.2067    2.9634    0.1014 H         1 <0>         0.4390
     39 H6          1.3284    2.6194   -0.8739 H         1 <0>         0.1107
     40 H7          1.3323    2.6044    0.9223 H         1 <0>         0.1096
     41 H8          4.8222    0.0347    0.8931 H         1 <0>         0.1175
     42 H9          4.8183    0.0498   -0.9031 H         1 <0>         0.1175
     43 H10         6.1239    2.1696   -0.8881 H         1 <0>         0.0754
     44 H11         6.1278    2.1545    0.9081 H         1 <0>         0.0754
     45 H12         7.1527   -0.4421   -0.0141 H         1 <0>         0.4143
     46 H13         9.4708   -0.7175   -0.0216 H         1 <0>         0.4113
     47 H14        10.9939    1.2135   -2.1560 H         1 <0>         0.0568
     48 H15        10.3825    2.6354   -1.2444 H         1 <0>         0.0872
     49 H16        12.6651    3.0589   -2.1441 H         1 <0>         0.0710
     50 H17        13.4376    0.6924   -2.1657 H         1 <0>         0.0620
     51 H18        14.5829    1.7397   -1.2611 H         1 <0>         0.0644
     52 H19        14.1362   -0.3771   -0.0287 H         1 <0>         0.0744
     53 H20        11.8539   -0.8006    0.8707 H         1 <0>         0.0678
     54 H21        11.8500   -0.7854   -0.9255 H         1 <0>         0.0679
     55 H22        13.4469    0.6561    2.1290 H         1 <0>         0.0620
     56 H23        14.5883    1.7186    1.2373 H         1 <0>         0.0644
     57 H24        12.6744    3.0227    2.1506 H         1 <0>         0.0710
     58 H25        13.7322    3.7174    0.0067 H         1 <0>         0.0619
     59 H26        11.9755    4.0920    0.0137 H         1 <0>         0.0650
     60 H27        10.3880    2.6143    1.2539 H         1 <0>         0.0872
     61 H28        11.0034    1.1773    2.1387 H         1 <0>         0.0568
     62 H29        -5.1416    2.7669   -3.0394 H         1 <0>         0.1380
     63 H30        -5.7283    3.5372   -1.5265 H         1 <0>         0.1379
@<TRIPOS>BOND
     1    1    6 ar
     2    1    2 ar
     3    1   34 1
     4    2    3 ar
     5    2   35 1
     6    3    4 ar
     7    3   36 1
     8    4    5 ar
     9    4   30 1
    10    5    6 ar
    11    5    7 1
    12    6   37 1
    13    7    8 am
    14    7   38 1
    15    8    9 2
    16    8   10 1
    17   10   11 1
    18   10   39 1
    19   10   40 1
    20   11   12 1
    21   12   13 2
    22   12   14 1
    23   14   15 1
    24   14   41 1
    25   14   42 1
    26   15   16 1
    27   15   43 1
    28   15   44 1
    29   16   17 am
    30   16   45 1
    31   17   18 2
    32   17   19 am
    33   19   20 1
    34   19   46 1
    35   20   25 1
    36   20   29 1
    37   20   21 1
    38   21   22 1
    39   21   47 1
    40   21   48 1
    41   22   28 1
    42   22   23 1
    43   22   49 1
    44   23   24 1
    45   23   50 1
    46   23   51 1
    47   24   25 1
    48   24   26 1
    49   24   52 1
    50   25   53 1
    51   25   54 1
    52   26   27 1
    53   26   55 1
    54   26   56 1
    55   27   28 1
    56   27   29 1
    57   27   57 1
    58   28   58 1
    59   28   59 1
    60   29   60 1
    61   29   61 1
    62   30   31 1
    63   31   32 1
    64   31   62 1
    65   31   63 1
    66   32   33 3
@<TRIPOS>MOLECULE
ZINC35591925
   63    65     0     0     0
SMALL
USER_CHARGES

@<TRIPOS>ATOM
      1 C1          0.1628    1.0088   -0.8149 C.2       1 <0>        -0.1770
      2 C2          0.1475   -0.2946   -0.6852 C.2       1 <0>        -0.1550
      3 C3          1.4430   -1.0551   -0.5654 C.3       1 <0>         0.0901
      4 O1          1.3348   -2.0179    0.4851 O.3       1 <0>        -0.3738
      5 C4          2.5160   -2.7973    0.6832 C.3       1 <0>         0.1123
      6 H1          3.0447   -2.9029   -0.2642 H         1 <0>         0.0813
      7 C5          2.1315   -4.1814    1.2097 C.3       1 <0>        -0.1305
      8 C6          3.3962   -5.0159    1.4217 C.3       1 <0>         0.1165
      9 C7          4.3034   -4.3180    2.4370 C.3       1 <0>        -0.0992
     10 C8          4.6880   -2.9339    1.9105 C.3       1 <0>         0.0850
     11 H2          5.3343   -2.4367    2.6338 H         1 <0>         0.0648
     12 C9          3.4232   -2.0994    1.6984 C.3       1 <0>         0.0506
     13 H3          2.8945   -1.9937    2.6458 H         1 <0>         0.0704
     14 O2          3.7824   -0.8066    1.2067 O.3       1 <0>        -0.5586
     15 O3          5.3811   -3.0723    0.6686 O.3       1 <0>        -0.5318
     16 C10         3.0174   -6.3792    1.9403 C.2       1 <0>         0.4935
     17 O4          1.9653   -6.5355    2.5231 O.2       1 <0>        -0.5294
     18 N1          3.8478   -7.4247    1.7566 N.am      1 <0>        -0.7138
     19 C11         3.4356   -8.7688    2.1687 C.3       1 <0>         0.1075
     20 C12         4.5527   -9.7647    1.8508 C.3       1 <0>         0.0677
     21 H4          4.8255   -9.6906    0.7981 H         1 <0>         0.0877
     22 C13         4.0813  -11.1998    2.1698 C.3       1 <0>        -0.1484
     23 C14         5.3577  -11.8372    2.7835 C.3       1 <0>        -0.1563
     24 C15         5.9708  -10.6186    3.5183 C.3       1 <0>         0.0489
     25 O5          5.6956   -9.4906    2.6695 O.3       1 <0>        -0.3744
     26 O6          4.0893   -5.1544    0.1798 O.3       1 <0>        -0.3260
     27 C16         3.2996   -5.7237   -0.8662 C.3       1 <0>         0.0860
     28 C17         4.0955   -5.7377   -2.1458 C.ar      1 <0>        -0.0816
     29 C18         4.0441   -4.6548   -3.0038 C.ar      1 <0>        -0.0611
     30 C19         4.7741   -4.6676   -4.1773 C.ar      1 <0>        -0.1199
     31 C20         5.5561   -5.7631   -4.4931 C.ar      1 <0>        -0.0656
     32 C21         5.6083   -6.8453   -3.6349 C.ar      1 <0>        -0.1842
     33 C22         4.8814   -6.8307   -2.4589 C.ar      1 <0>        -0.0473
     34 C23         6.4603   -8.0396   -3.9793 C.3       1 <0>         0.5083
     35 F1          7.0971   -7.8202   -5.2055 F         1 <0>        -0.1765
     36 F2          7.4225   -8.2293   -2.9815 F         1 <0>        -0.1748
     37 F3          5.6524   -9.1781   -4.0705 F         1 <0>        -0.1768
     38 H5          1.1038    1.5384   -0.8359 H         1 <0>         0.0983
     39 H6         -0.7655    1.5534   -0.9052 H         1 <0>         0.1034
     40 H7         -0.7935   -0.8242   -0.6642 H         1 <0>         0.1136
     41 H8          1.6532   -1.5652   -1.5055 H         1 <0>         0.0514
     42 H9          2.2524   -0.3608   -0.3399 H         1 <0>         0.0740
     43 H10         1.6028   -4.0758    2.1570 H         1 <0>         0.0974
     44 H11         1.4852   -4.6786    0.4864 H         1 <0>         0.0862
     45 H12         3.7747   -4.2123    3.3844 H         1 <0>         0.1012
     46 H13         5.2044   -4.9125    2.5881 H         1 <0>         0.0922
     47 H14         4.3583   -0.3060    1.8006 H         1 <0>         0.3785
     48 H15         5.6559   -2.2325    0.2757 H         1 <0>         0.3740
     49 H16         4.7184   -7.2873    1.3515 H         1 <0>         0.4106
     50 H17         3.2372   -8.7753    3.2405 H         1 <0>         0.0751
     51 H18         2.5315   -9.0527    1.6300 H         1 <0>         0.0787
     52 H19         3.2667  -11.1886    2.8939 H         1 <0>         0.0827
     53 H20         3.7859  -11.7223    1.2599 H         1 <0>         0.0877
     54 H21         5.1018  -12.6311    3.4852 H         1 <0>         0.0863
     55 H22         6.0268  -12.2040    2.0051 H         1 <0>         0.0809
     56 H23         5.4969  -10.4856    4.4909 H         1 <0>         0.0620
     57 H24         7.0465  -10.7494    3.6354 H         1 <0>         0.0880
     58 H25         3.0234   -6.7437   -0.5990 H         1 <0>         0.0610
     59 H26         2.3976   -5.1278   -1.0059 H         1 <0>         0.0680
     60 H27         3.4332   -3.7990   -2.7572 H         1 <0>         0.1306
     61 H28         4.7333   -3.8219   -4.8479 H         1 <0>         0.1377
     62 H29         6.1260   -5.7734   -5.4104 H         1 <0>         0.1398
     63 H30         4.9251   -7.6747   -1.7866 H         1 <0>         0.1319
@<TRIPOS>BOND
     1    1    2 2
     2    1   38 1
     3    1   39 1
     4    2    3 1
     5    2   40 1
     6    3    4 1
     7    3   41 1
     8    3   42 1
     9    4    5 1
    10    5    6 1
    11    5   12 1
    12    5    7 1
    13    7    8 1
    14    7   43 1
    15    7   44 1
    16    8    9 1
    17    8   16 1
    18    8   26 1
    19    9   10 1
    20    9   45 1
    21    9   46 1
    22   10   11 1
    23   10   12 1
    24   10   15 1
    25   12   13 1
    26   12   14 1
    27   14   47 1
    28   15   48 1
    29   16   17 2
    30   16   18 am
    31   18   19 1
    32   18   49 1
    33   19   20 1
    34   19   50 1
    35   19   51 1
    36   20   21 1
    37   20   25 1
    38   20   22 1
    39   22   23 1
    40   22   52 1
    41   22   53 1
    42   23   24 1
    43   23   54 1
    44   23   55 1
    45   24   25 1
    46   24   56 1
    47   24   57 1
    48   26   27 1
    49   27   28 1
    50   27   58 1
    51   27   59 1
    52   28   33 ar
    53   28   29 ar
    54   29   30 ar
    55   29   60 1
    56   30   31 ar
    57   30   61 1
    58   31   32 ar
    59   31   62 1
    60   32   33 ar
    61   32   34 1
    62   33   63 1
    63   34   35 1
    64   34   36 1
    65   34   37 1
@<TRIPOS>MOLECULE
ZINC45850994
   60    61     0     0     0
SMALL
USER_CHARGES

@<TRIPOS>ATOM
      1 C1          0.0454    1.5641    0.0908 C.3       1 <0>        -0.1783
      2 C2          0.0693    0.0344    0.0728 C.3       1 <0>         0.1077
      3 N1         -1.3041   -0.4754    0.0659 N.pl3     1 <0>        -0.9952
      4 C3         -2.0284   -0.6118   -1.2002 C.3       1 <0>         0.1195
      5 C4         -1.6820   -1.9560   -1.8437 C.3       1 <0>        -0.1756
      6 S1         -2.0378   -0.8976    1.4892 S.o2      1 <0>         2.6871
      7 O1         -3.0562   -1.8321    1.1595 O.2       1 <0>        -0.9507
      8 O2         -0.9972   -1.1978    2.4091 O.2       1 <0>        -0.9525
      9 C5         -2.8523    0.5397    2.1017 C.ar      1 <0>        -0.6694
     10 C6         -2.1761    1.4100    2.9389 C.ar      1 <0>        -0.0208
     11 C7         -2.8069    2.5367    3.4228 C.ar      1 <0>        -0.1145
     12 C8         -4.1330    2.7991    3.0651 C.ar      1 <0>        -0.0191
     13 C9         -4.8093    1.9152    2.2184 C.ar      1 <0>        -0.1237
     14 C10        -4.1632    0.7955    1.7387 C.ar      1 <0>        -0.0210
     15 C11        -4.8138    3.9994    3.5776 C.2       1 <0>        -0.0256
     16 C12        -6.0925    4.2491    3.2306 C.2       1 <0>        -0.1962
     17 C13        -6.7695    5.4428    3.7403 C.2       1 <0>         0.5460
     18 O3         -6.1781    6.2098    4.4774 O.2       1 <0>        -0.5198
     19 N2         -8.0478    5.6924    3.3934 N.am      1 <0>        -0.6660
     20 C14        -8.7261    6.7799    3.9560 C.ar      1 <0>         0.1243
     21 C15       -10.0829    6.6825    4.2365 C.ar      1 <0>        -0.1230
     22 C16       -10.7516    7.7549    4.7918 C.ar      1 <0>        -0.1280
     23 C17       -10.0679    8.9311    5.0700 C.ar      1 <0>         0.1501
     24 C18        -8.7113    9.0287    4.7896 C.ar      1 <0>        -0.1004
     25 C19        -8.0412    7.9546    4.2392 C.ar      1 <0>        -0.0990
     26 N3        -10.7468   10.0197    5.6332 N.am      1 <0>        -0.6857
     27 C20       -10.4065   11.2775    5.2888 C.2       1 <0>         0.7029
     28 O4         -9.4565   11.4710    4.5550 O.2       1 <0>        -0.5709
     29 N4        -11.1192   12.3208    5.7580 N.am      1 <0>        -0.7389
     30 C21       -10.7492   13.6880    5.3837 C.3       1 <0>         0.1646
     31 C22       -11.6970   14.6613    6.0359 C.2       1 <0>        -0.1825
     32 C23       -11.2292   15.6305    6.7828 C.2       1 <0>        -0.1588
     33 H1          1.0672    1.9435    0.0960 H         1 <0>         0.0720
     34 H2         -0.4735    1.9298   -0.7953 H         1 <0>         0.0616
     35 H3         -0.4747    1.9089    0.9846 H         1 <0>         0.0556
     36 H4          0.5894   -0.3103   -0.8209 H         1 <0>         0.0871
     37 H5          0.5882   -0.3313    0.9589 H         1 <0>         0.0946
     38 H6         -3.1010   -0.5647   -1.0121 H         1 <0>         0.0809
     39 H7         -1.7415    0.1972   -1.8719 H         1 <0>         0.0816
     40 H8         -0.6094   -2.0031   -2.0318 H         1 <0>         0.0604
     41 H9         -1.9689   -2.7651   -1.1720 H         1 <0>         0.0641
     42 H10        -2.2209   -2.0575   -2.7857 H         1 <0>         0.0703
     43 H11        -1.1520    1.2060    3.2142 H         1 <0>         0.1443
     44 H12        -2.2781    3.2146    4.0765 H         1 <0>         0.1407
     45 H13        -5.8336    2.1112    1.9378 H         1 <0>         0.1382
     46 H14        -4.6828    0.1140    1.0815 H         1 <0>         0.1435
     47 H15        -4.2890    4.6801    4.2317 H         1 <0>         0.1443
     48 H16        -6.6173    3.5685    2.5766 H         1 <0>         0.1358
     49 H17        -8.4976    5.1184    2.7538 H         1 <0>         0.4122
     50 H18       -10.6148    5.7679    4.0198 H         1 <0>         0.1303
     51 H19       -11.8067    7.6793    5.0096 H         1 <0>         0.1298
     52 H20        -8.1796    9.9435    5.0060 H         1 <0>         0.1445
     53 H21        -6.9852    8.0290    4.0253 H         1 <0>         0.1421
     54 H22       -11.4618    9.8680    6.2709 H         1 <0>         0.4070
     55 H23       -11.8770   12.1665    6.3434 H         1 <0>         0.3992
     56 H24        -9.7318   13.8932    5.7165 H         1 <0>         0.0731
     57 H25       -10.8059   13.7962    4.3005 H         1 <0>         0.0773
     58 H26       -12.7619   14.5598    5.8876 H         1 <0>         0.1162
     59 H27       -10.1642   15.7321    6.9311 H         1 <0>         0.1017
     60 H28       -11.9084   16.3280    7.2503 H         1 <0>         0.1053
@<TRIPOS>BOND
     1    1    2 1
     2    1   33 1
     3    1   34 1
     4    1   35 1
     5    2    3 1
     6    2   36 1
     7    2   37 1
     8    3    4 1
     9    3    6 1
    10    4    5 1
    11    4   38 1
    12    4   39 1
    13    5   40 1
    14    5   41 1
    15    5   42 1
    16    6    7 2
    17    6    8 2
    18    6    9 1
    19    9   14 ar
    20    9   10 ar
    21   10   11 ar
    22   10   43 1
    23   11   12 ar
    24   11   44 1
    25   12   13 ar
    26   12   15 1
    27   13   14 ar
    28   13   45 1
    29   14   46 1
    30   15   16 2
    31   15   47 1
    32   16   17 1
    33   16   48 1
    34   17   18 2
    35   17   19 am
    36   19   20 1
    37   19   49 1
    38   20   25 ar
    39   20   21 ar
    40   21   22 ar
    41   21   50 1
    42   22   23 ar
    43   22   51 1
    44   23   24 ar
    45   23   26 1
    46   24   25 ar
    47   24   52 1
    48   25   53 1
    49   26   27 am
    50   26   54 1
    51   27   28 2
    52   27   29 am
    53   29   30 1
    54   29   55 1
    55   30   31 1
    56   30   56 1
    57   30   57 1
    58   31   32 2
    59   31   58 1
    60   32   59 1
    61   32   60 1
@<TRIPOS>MOLECULE
ZINC10040955
   54    56     0     0     0
SMALL
USER_CHARGES
3,4,5-triethoxy-N-[(6-hydroxybenzothiazol-2-yl)thiocarbamoyl]benzamide
@<TRIPOS>ATOM
      1 C1          6.2164   -0.6581   -0.0622 C.3       1 <0>        -0.1519
      2 C2          4.7940   -0.0948   -0.0451 C.3       1 <0>         0.0474
      3 O1          4.8472    1.3332   -0.0375 O.3       1 <0>        -0.2955
      4 C3          3.6593    1.9952   -0.0221 C.ar      1 <0>         0.1510
      5 C4          2.4733    1.2854   -0.0147 C.ar      1 <0>        -0.1667
      6 C5          1.2531    1.9663    0.0007 C.ar      1 <0>        -0.0617
      7 C6          1.2355    3.3637    0.0026 C.ar      1 <0>        -0.2084
      8 C7          2.4245    4.0685    0.0009 C.ar      1 <0>         0.1504
      9 C8          3.6389    3.3875   -0.0144 C.ar      1 <0>         0.0633
     10 O2          4.8064    4.0829   -0.0213 O.3       1 <0>        -0.3094
     11 C9          5.3521    4.4217   -1.2978 C.3       1 <0>         0.0627
     12 C10         6.6571    5.1969   -1.1051 C.3       1 <0>        -0.1497
     13 O3          2.4082    5.4284    0.0084 O.3       1 <0>        -0.2952
     14 C11         1.1273    6.0617    0.0240 C.3       1 <0>         0.0491
     15 C12         1.3095    7.5808    0.0305 C.3       1 <0>        -0.1536
     16 C13        -0.0144    1.2114    0.0087 C.2       1 <0>         0.5391
     17 O4          0.0021   -0.0041    0.0020 O.2       1 <0>        -0.3978
     18 N1         -1.1906    1.8693    0.0179 N.am      1 <0>        -0.6330
     19 C14        -2.3486    1.1797    0.0196 C.2       1 <0>         0.4664
     20 S1         -2.3253   -0.5322    0.0102 S.2       1 <0>        -0.3420
     21 N2         -3.5248    1.8376    0.0288 N.pl3     1 <0>        -0.5689
     22 C15        -4.7147    1.1289    0.0305 C.2       1 <0>         0.3466
     23 N3         -4.8987   -0.1703    0.0248 N.2       1 <0>        -0.4365
     24 C16        -6.1295   -0.7297    0.0275 C.ar      1 <0>         0.0775
     25 C17        -6.4626   -2.1039    0.0225 C.ar      1 <0>        -0.0346
     26 C18        -7.7715   -2.5086    0.0259 C.ar      1 <0>        -0.1336
     27 C19        -8.8158   -1.5887    0.0353 C.ar      1 <0>         0.1325
     28 C20        -8.5235   -0.2329    0.0408 C.ar      1 <0>        -0.0937
     29 C21        -7.2134    0.1770    0.0370 C.ar      1 <0>        -0.1243
     30 S2         -6.3899    1.7513    0.0492 S.3       1 <0>         0.0092
     31 O5        -10.1074   -2.0141    0.0394 O.3       1 <0>        -0.4899
     32 H1          6.7347   -0.3090   -0.9553 H         1 <0>         0.0671
     33 H2          6.7520   -0.3192    0.8246 H         1 <0>         0.0686
     34 H3          6.1758   -1.7473   -0.0681 H         1 <0>         0.0825
     35 H4          4.2756   -0.4439    0.8479 H         1 <0>         0.0692
     36 H5          4.2583   -0.4337   -0.9319 H         1 <0>         0.0680
     37 H6          2.4896    0.2056   -0.0210 H         1 <0>         0.1541
     38 H7          0.2938    3.8924    0.0099 H         1 <0>         0.1331
     39 H8          5.5508    3.5103   -1.8616 H         1 <0>         0.0536
     40 H9          4.6400    5.0395   -1.8450 H         1 <0>         0.0525
     41 H10         6.4584    6.1083   -0.5413 H         1 <0>         0.0652
     42 H11         7.3692    4.5791   -0.5579 H         1 <0>         0.0659
     43 H12         7.0733    5.4553   -2.0787 H         1 <0>         0.0750
     44 H13         0.5654    5.7670   -0.8623 H         1 <0>         0.0635
     45 H14         0.5823    5.7574    0.9176 H         1 <0>         0.0648
     46 H15         0.3325    8.0639    0.0424 H         1 <0>         0.0814
     47 H16         1.8714    7.8756    0.9167 H         1 <0>         0.0700
     48 H17         1.8545    7.8852   -0.8631 H         1 <0>         0.0685
     49 H18        -1.2038    2.8392    0.0232 H         1 <0>         0.4084
     50 H19        -3.5379    2.8075    0.0341 H         1 <0>         0.4178
     51 H20        -5.6757   -2.8435    0.0149 H         1 <0>         0.1429
     52 H21        -7.9979   -3.5646    0.0216 H         1 <0>         0.1425
     53 H22        -9.3210    0.4953    0.0485 H         1 <0>         0.1400
     54 H23       -10.4853   -2.1325   -0.8428 H         1 <0>         0.3967
@<TRIPOS>BOND
     1    1    2 1
     2    1   32 1
     3    1   33 1
     4    1   34 1
     5    2    3 1
     6    2   35 1
     7    2   36 1
     8    3    4 1
     9    4    9 ar
    10    4    5 ar
    11    5    6 ar
    12    5   37 1
    13    6    7 ar
    14    6   16 1
    15    7    8 ar
    16    7   38 1
    17    8    9 ar
    18    8   13 1
    19    9   10 1
    20   10   11 1
    21   11   12 1
    22   11   39 1
    23   11   40 1
    24   12   41 1
    25   12   42 1
    26   12   43 1
    27   13   14 1
    28   14   15 1
    29   14   44 1
    30   14   45 1
    31   15   46 1
    32   15   47 1
    33   15   48 1
    34   16   17 2
    35   16   18 am
    36   18   19 1
    37   18   49 1
    38   19   20 2
    39   19   21 1
    40   21   22 1
    41   21   50 1
    42   22   30 1
    43   22   23 2
    44   23   24 1
    45   24   29 ar
    46   24   25 ar
    47   25   26 ar
    48   25   51 1
    49   26   27 ar
    50   26   52 1
    51   27   28 ar
    52   27   31 1
    53   28   29 ar
    54   28   53 1
    55   29   30 1
    56   31   54 1
@<TRIPOS>MOLECULE
ZINC12821158
   60    61     0     0     0
SMALL
USER_CHARGES
N-[2-[[(2S)-2-[(4-methoxyphenyl)sulfonylamino]-4-methyl-pentanoyl]amino]ethyl]benzamide
@<TRIPOS>ATOM
      1 C1         -0.7655   -6.8741    0.1668 C.3       1 <0>        -0.1620
      2 C2         -1.4858   -6.1734   -0.9869 C.3       1 <0>        -0.1122
      3 C3         -0.7070   -6.3965   -2.2849 C.3       1 <0>        -0.1463
      4 C4         -2.8957   -6.7493   -1.1328 C.3       1 <0>        -0.1330
      5 C5         -3.7270   -6.3806    0.0976 C.3       1 <0>         0.1383
      6 H1         -3.1958   -6.6848    0.9995 H         1 <0>         0.1089
      7 C6         -3.9506   -4.8906    0.1247 C.2       1 <0>         0.5158
      8 O1         -5.0657   -4.4416   -0.0368 O.2       1 <0>        -0.5200
      9 N1         -2.9115   -4.0568    0.3283 N.am      1 <0>        -0.7260
     10 C7         -3.1137   -2.6069    0.2720 C.3       1 <0>         0.1044
     11 C8         -1.7849   -1.8960    0.5360 C.3       1 <0>         0.1079
     12 N2         -1.9871   -0.4461    0.4797 N.am      1 <0>        -0.7253
     13 C9         -0.9480    0.3877    0.6833 C.2       1 <0>         0.5632
     14 O2          0.1570   -0.0634    0.9137 O.2       1 <0>        -0.5314
     15 C10        -1.1521    1.8509    0.6265 C.ar      1 <0>        -0.1395
     16 C11        -2.4185    2.3720    0.3566 C.ar      1 <0>        -0.0865
     17 C12        -2.6032    3.7383    0.3102 C.ar      1 <0>        -0.1269
     18 C13        -1.5343    4.5915    0.5197 C.ar      1 <0>        -0.0909
     19 C14        -0.2752    4.0814    0.7821 C.ar      1 <0>        -0.1267
     20 C15        -0.0780    2.7171    0.8369 C.ar      1 <0>        -0.0584
     21 N3         -5.0197   -7.0674    0.0373 N.pl3     1 <0>        -1.0993
     22 S1         -5.2442   -8.4838    0.8653 S.o2      1 <0>         2.6969
     23 O3         -6.6086   -8.8423    0.6943 O.2       1 <0>        -0.9511
     24 O4         -4.1776   -9.3456    0.4926 O.2       1 <0>        -0.9500
     25 C16        -5.0282   -8.1264    2.5771 C.ar      1 <0>        -0.7204
     26 C17        -3.7753   -8.2340    3.1519 C.ar      1 <0>         0.0148
     27 C18        -3.6023   -7.9488    4.4925 C.ar      1 <0>        -0.2290
     28 C19        -4.6891   -7.5652    5.2647 C.ar      1 <0>         0.1859
     29 C20        -5.9463   -7.4635    4.6869 C.ar      1 <0>        -0.1705
     30 C21        -6.1130   -7.7443    3.3446 C.ar      1 <0>         0.0244
     31 O5         -4.5224   -7.2892    6.5849 O.3       1 <0>        -0.3093
     32 C22        -3.2002   -7.4149    7.1121 C.3       1 <0>         0.0214
     33 H2         -1.3608   -6.7834    1.0754 H         1 <0>         0.0514
     34 H3         -0.6308   -7.9282   -0.0756 H         1 <0>         0.0686
     35 H4          0.2083   -6.4098    0.3227 H         1 <0>         0.0633
     36 H5         -1.5493   -5.1051   -0.7803 H         1 <0>         0.0781
     37 H6         -1.2201   -5.8973   -3.1068 H         1 <0>         0.0563
     38 H7          0.2975   -5.9862   -2.1809 H         1 <0>         0.0594
     39 H8         -0.6435   -7.4648   -2.4915 H         1 <0>         0.0603
     40 H9         -2.8378   -7.8343   -1.2203 H         1 <0>         0.0987
     41 H10        -3.3659   -6.3374   -2.0257 H         1 <0>         0.0802
     42 H11        -2.0297   -4.4167    0.5121 H         1 <0>         0.4075
     43 H12        -3.8403   -2.3118    1.0290 H         1 <0>         0.0790
     44 H13        -3.4842   -2.3298   -0.7149 H         1 <0>         0.0797
     45 H14        -1.0582   -2.1911   -0.2209 H         1 <0>         0.0790
     46 H15        -1.4144   -2.1731    1.5229 H         1 <0>         0.0777
     47 H16        -2.8689   -0.0862    0.2959 H         1 <0>         0.4036
     48 H17        -3.2527    1.7070    0.1884 H         1 <0>         0.1256
     49 H18        -3.5835    4.1429    0.1058 H         1 <0>         0.1308
     50 H19        -1.6833    5.6603    0.4778 H         1 <0>         0.1293
     51 H20         0.5550    4.7527    0.9447 H         1 <0>         0.1319
     52 H21         0.9053    2.3202    1.0418 H         1 <0>         0.1369
     53 H22        -5.7440   -6.6924   -0.4877 H         1 <0>         0.4289
     54 H23        -2.9304   -8.5369    2.5513 H         1 <0>         0.1439
     55 H24        -2.6226   -8.0287    4.9400 H         1 <0>         0.1404
     56 H25        -6.7939   -7.1655    5.2861 H         1 <0>         0.1434
     57 H26        -7.0914   -7.6649    2.8943 H         1 <0>         0.1490
     58 H27        -2.8527   -8.4396    6.9810 H         1 <0>         0.0618
     59 H28        -2.5322   -6.7344    6.5840 H         1 <0>         0.0609
     60 H29        -3.2070   -7.1664    8.1734 H         1 <0>         0.1070
@<TRIPOS>BOND
     1    1    2 1
     2    1   33 1
     3    1   34 1
     4    1   35 1
     5    2    3 1
     6    2    4 1
     7    2   36 1
     8    3   37 1
     9    3   38 1
    10    3   39 1
    11    4    5 1
    12    4   40 1
    13    4   41 1
    14    5    6 1
    15    5    7 1
    16    5   21 1
    17    7    8 2
    18    7    9 am
    19    9   10 1
    20    9   42 1
    21   10   11 1
    22   10   43 1
    23   10   44 1
    24   11   12 1
    25   11   45 1
    26   11   46 1
    27   12   13 am
    28   12   47 1
    29   13   14 2
    30   13   15 1
    31   15   20 ar
    32   15   16 ar
    33   16   17 ar
    34   16   48 1
    35   17   18 ar
    36   17   49 1
    37   18   19 ar
    38   18   50 1
    39   19   20 ar
    40   19   51 1
    41   20   52 1
    42   21   22 1
    43   21   53 1
    44   22   23 2
    45   22   24 2
    46   22   25 1
    47   25   30 ar
    48   25   26 ar
    49   26   27 ar
    50   26   54 1
    51   27   28 ar
    52   27   55 1
    53   28   29 ar
    54   28   31 1
    55   29   30 ar
    56   29   56 1
    57   30   57 1
    58   31   32 1
    59   32   58 1
    60   32   59 1
    61   32   60 1
@<TRIPOS>MOLECULE
ZINC14660595
   52    53     0     0     0
SMALL
USER_CHARGES
2-(2-methoxyethoxy)-N-[[[2-(2-methylphenoxy)acetyl]amino]carbamothioyl]benzamide
@<TRIPOS>ATOM
      1 C1          7.5606   -3.9521   -0.0908 C.3       1 <0>        -0.1106
      2 C2          6.3768   -4.8846   -0.0851 C.ar      1 <0>        -0.1061
      3 C3          6.5737   -6.2521   -0.0943 C.ar      1 <0>        -0.0824
      4 C4          5.4881   -7.1080   -0.0886 C.ar      1 <0>        -0.1478
      5 C5          4.2027   -6.5982   -0.0731 C.ar      1 <0>        -0.0863
      6 C6          4.0006   -5.2319   -0.0585 C.ar      1 <0>        -0.2059
      7 C7          5.0885   -4.3707   -0.0700 C.ar      1 <0>         0.1208
      8 O1          4.8922   -3.0259   -0.0609 O.3       1 <0>        -0.2853
      9 C8          3.5386   -2.5680   -0.0455 C.3       1 <0>         0.0529
     10 C9          3.5182   -1.0612   -0.0372 C.2       1 <0>         0.5222
     11 O2          4.5601   -0.4405   -0.0438 O.2       1 <0>        -0.4885
     12 N1          2.3420   -0.4032   -0.0225 N.am      1 <0>        -0.5509
     13 N2          2.3230    0.9976   -0.0148 N.pl3     1 <0>        -0.4576
     14 C10         1.1468    1.6555   -0.0000 C.2       1 <0>         0.5170
     15 S1          1.1236    3.3673    0.0094 S.2       1 <0>        -0.4500
     16 N3         -0.0111    0.9658    0.0074 N.am      1 <0>        -0.6448
     17 C11        -1.1873    1.6238    0.0165 C.2       1 <0>         0.5329
     18 O3         -1.2038    2.8392    0.0232 O.2       1 <0>        -0.3749
     19 C12        -2.4542    0.8692    0.0184 C.ar      1 <0>        -0.1775
     20 C13        -2.4400   -0.5281    0.0050 C.ar      1 <0>        -0.0528
     21 C14        -3.6272   -1.2271    0.0118 C.ar      1 <0>        -0.1642
     22 C15        -4.8366   -0.5510    0.0216 C.ar      1 <0>        -0.0434
     23 C16        -4.8653    0.8292    0.0297 C.ar      1 <0>        -0.2171
     24 C17        -3.6799    1.5494    0.0279 C.ar      1 <0>         0.1987
     25 O4         -3.7065    2.9056    0.0349 O.3       1 <0>        -0.2694
     26 C18        -4.9922    3.5291    0.0444 C.3       1 <0>         0.0544
     27 C19        -4.8216    5.0496    0.0513 C.3       1 <0>         0.0631
     28 O5         -4.2087    5.4656   -1.1707 O.3       1 <0>        -0.3816
     29 C20        -4.0029    6.8765   -1.2668 C.3       1 <0>         0.0323
     30 H1          7.8557   -3.7333    0.9354 H         1 <0>         0.0707
     31 H2          8.3919   -4.4235   -0.6152 H         1 <0>         0.0670
     32 H3          7.2906   -3.0252   -0.5968 H         1 <0>         0.0732
     33 H4          7.5766   -6.6528   -0.1057 H         1 <0>         0.1319
     34 H5          5.6441   -8.1767   -0.0959 H         1 <0>         0.1263
     35 H6          3.3562   -7.2689   -0.0683 H         1 <0>         0.1268
     36 H7          2.9966   -4.8342   -0.0419 H         1 <0>         0.1273
     37 H8          3.0383   -2.9431    0.8473 H         1 <0>         0.1034
     38 H9          3.0213   -2.9335   -0.9326 H         1 <0>         0.1033
     39 H10         1.5086   -0.8996   -0.0172 H         1 <0>         0.4191
     40 H11         3.1563    1.4940   -0.0201 H         1 <0>         0.4582
     41 H12         0.0021   -0.0041    0.0020 H         1 <0>         0.3982
     42 H13        -1.4997   -1.0593   -0.0069 H         1 <0>         0.1243
     43 H14        -3.6152   -2.3070    0.0048 H         1 <0>         0.1338
     44 H15        -5.7624   -1.1071    0.0227 H         1 <0>         0.1343
     45 H16        -5.8120    1.3489    0.0370 H         1 <0>         0.1391
     46 H17        -5.5478    3.2299   -0.8443 H         1 <0>         0.0751
     47 H18        -5.5390    3.2209    0.9356 H         1 <0>         0.0812
     48 H19        -5.7980    5.5243    0.1481 H         1 <0>         0.0722
     49 H20        -4.1912    5.3407    0.8915 H         1 <0>         0.0645
     50 H21        -4.9624    7.3891   -1.1974 H         1 <0>         0.0401
     51 H22        -3.3555    7.2055   -0.4540 H         1 <0>         0.0447
     52 H23        -3.5340    7.1110   -2.2225 H         1 <0>         0.0879
@<TRIPOS>BOND
     1    1    2 1
     2    1   30 1
     3    1   31 1
     4    1   32 1
     5    2    7 ar
     6    2    3 ar
     7    3    4 ar
     8    3   33 1
     9    4    5 ar
    10    4   34 1
    11    5    6 ar
    12    5   35 1
    13    6    7 ar
    14    6   36 1
    15    7    8 1
    16    8    9 1
    17    9   10 1
    18    9   37 1
    19    9   38 1
    20   10   11 2
    21   10   12 am
    22   12   13 1
    23   12   39 1
    24   13   14 1
    25   13   40 1
    26   14   15 2
    27   14   16 1
    28   16   17 am
    29   16   41 1
    30   17   18 2
    31   17   19 1
    32   19   24 ar
    33   19   20 ar
    34   20   21 ar
    35   20   42 1
    36   21   22 ar
    37   21   43 1
    38   22   23 ar
    39   22   44 1
    40   23   24 ar
    41   23   45 1
    42   24   25 1
    43   25   26 1
    44   26   27 1
    45   26   46 1
    46   26   47 1
    47   27   28 1
    48   27   48 1
    49   27   49 1
    50   28   29 1
    51   29   50 1
    52   29   51 1
    53   29   52 1
@<TRIPOS>MOLECULE
ZINC39707740
   55    57     0     0     0
SMALL
USER_CHARGES

@<TRIPOS>ATOM
      1 C1         -0.0187    1.5258    0.0104 C.3       1 <0>        -0.1523
      2 C2          0.0021   -0.0041    0.0020 C.3       1 <0>         0.0590
      3 O1         -1.3386   -0.4987    0.0122 O.3       1 <0>        -0.3416
      4 C3         -1.4964   -1.8317    0.0065 C.2       1 <0>         0.4805
      5 O2         -0.5283   -2.5546   -0.0066 O.2       1 <0>        -0.4911
      6 C4         -2.8809   -2.4266    0.0165 C.3       1 <0>        -0.0566
      7 H1         -3.4095   -2.0901    0.9084 H         1 <0>         0.1316
      8 C5         -2.7720   -3.9741    0.0403 C.3       1 <0>         0.1740
      9 H2         -1.7991   -4.3008    0.4074 H         1 <0>         0.1469
     10 S1         -2.9576   -4.2996   -1.7637 S.3       1 <0>        -0.0703
     11 C6         -3.7655   -2.7781   -2.2262 C.2       1 <0>        -0.0915
     12 C7         -3.6226   -1.9681   -1.1977 C.2       1 <0>        -0.1780
     13 C8         -4.2076   -0.5801   -1.2461 C.3       1 <0>        -0.0946
     14 C9         -4.4661   -2.4809   -3.5269 C.3       1 <0>        -0.0814
     15 N1         -3.8619   -4.5776    0.8112 N.am      1 <0>        -0.7153
     16 C10        -4.5189   -5.6489    0.3243 C.2       1 <0>         0.5277
     17 O3         -4.2080   -6.1133   -0.7521 O.2       1 <0>        -0.4732
     18 C11        -5.6400   -6.2696    1.1173 C.3       1 <0>        -0.1449
     19 S2         -6.3181   -7.6817    0.2024 S.3       1 <0>         0.0943
     20 C12        -7.6005   -8.2900    1.2465 C.2       1 <0>         0.2474
     21 H3         -8.3897   -9.9063    0.1973 H         1 <0>         0.4489
     22 N2         -7.9483   -7.7955    2.4159 N.2       1 <0>        -0.5317
     23 C13        -8.9559   -8.5067    2.9228 C.2       1 <0>         0.2195
     24 N3         -9.2668   -9.4629    2.0894 N.2       1 <0>        -0.2831
     25 N4         -8.4054   -9.3431    0.9869 N.pl3     1 <0>        -0.4555
     26 C14        -9.6283   -8.2487    4.2465 C.3       1 <0>         0.2251
     27 N5        -10.7508   -7.3274    4.0528 N.pl3     1 <0>        -0.7428
     28 C15       -11.5306   -6.9375    5.1439 C.ar      1 <0>         0.2174
     29 C16       -11.2397   -7.4178    6.4145 C.ar      1 <0>        -0.1979
     30 C17       -12.0126   -7.0299    7.4913 C.ar      1 <0>        -0.0718
     31 C18       -13.0752   -6.1647    7.3057 C.ar      1 <0>        -0.1780
     32 C19       -13.3676   -5.6847    6.0422 C.ar      1 <0>        -0.0722
     33 C20       -12.5953   -6.0640    4.9620 C.ar      1 <0>        -0.1931
     34 H4          1.0039    1.9031    0.0027 H         1 <0>         0.0819
     35 H5         -0.5459    1.8868   -0.8726 H         1 <0>         0.0676
     36 H6         -0.5289    1.8773    0.9072 H         1 <0>         0.0675
     37 H7          0.5123   -0.3556   -0.8948 H         1 <0>         0.0703
     38 H8          0.5293   -0.3651    0.8851 H         1 <0>         0.0699
     39 H9         -3.4719    0.1101   -1.6591 H         1 <0>         0.0735
     40 H10        -5.0972   -0.5825   -1.8759 H         1 <0>         0.0688
     41 H11        -4.4768   -0.2639   -0.2383 H         1 <0>         0.0645
     42 H12        -4.4130   -3.3549   -4.1762 H         1 <0>         0.0748
     43 H13        -5.5102   -2.2376   -3.3299 H         1 <0>         0.0821
     44 H14        -3.9819   -1.6354   -4.0155 H         1 <0>         0.0809
     45 H15        -4.1106   -4.2061    1.6720 H         1 <0>         0.4100
     46 H16        -5.2590   -6.6097    2.0802 H         1 <0>         0.1297
     47 H17        -6.4245   -5.5301    1.2776 H         1 <0>         0.1273
     48 H18        -9.9967   -9.1891    4.6564 H         1 <0>         0.0863
     49 H19        -8.9111   -7.8071    4.9384 H         1 <0>         0.0898
     50 H20       -10.9524   -6.9882    3.1666 H         1 <0>         0.4011
     51 H21       -10.4104   -8.0941    6.5600 H         1 <0>         0.1204
     52 H22       -11.7869   -7.4029    8.4794 H         1 <0>         0.1210
     53 H23       -13.6784   -5.8635    8.1494 H         1 <0>         0.1181
     54 H24       -14.1982   -5.0091    5.9007 H         1 <0>         0.1208
     55 H25       -12.8214   -5.6852    3.9762 H         1 <0>         0.1181
@<TRIPOS>BOND
     1    1    2 1
     2    1   34 1
     3    1   35 1
     4    1   36 1
     5    2    3 1
     6    2   37 1
     7    2   38 1
     8    3    4 1
     9    4    5 2
    10    4    6 1
    11    6    7 1
    12    6   12 1
    13    6    8 1
    14    8    9 1
    15    8   10 1
    16    8   15 1
    17   10   11 1
    18   11   12 2
    19   11   14 1
    20   12   13 1
    21   13   39 1
    22   13   40 1
    23   13   41 1
    24   14   42 1
    25   14   43 1
    26   14   44 1
    27   15   16 am
    28   15   45 1
    29   16   17 2
    30   16   18 1
    31   18   19 1
    32   18   46 1
    33   18   47 1
    34   19   20 1
    35   20   22 2
    36   20   25 1
    37   21   25 1
    38   22   23 1
    39   23   26 1
    40   23   24 2
    41   24   25 1
    42   26   27 1
    43   26   48 1
    44   26   49 1
    45   27   28 1
    46   27   50 1
    47   28   33 ar
    48   28   29 ar
    49   29   30 ar
    50   29   51 1
    51   30   31 ar
    52   30   52 1
    53   31   32 ar
    54   31   53 1
    55   32   33 ar
    56   32   54 1
    57   33   55 1
@<TRIPOS>MOLECULE
ZINC66107850
   56    58     0     0     0
SMALL
USER_CHARGES

@<TRIPOS>ATOM
      1 C1          2.4572    1.5010    0.2759 C.3       1 <0>         0.0302
      2 O1          2.4120    0.1538   -0.1987 O.3       1 <0>        -0.3854
      3 C2          1.1724   -0.2049   -0.8125 C.3       1 <0>         0.0616
      4 C3          1.2372   -1.6603   -1.2802 C.3       1 <0>         0.0600
      5 O2          1.3600   -2.5201   -0.1454 O.3       1 <0>        -0.3056
      6 C4          1.4307   -3.8561   -0.3881 C.ar      1 <0>         0.1226
      7 C5          1.3884   -4.3271   -1.6923 C.ar      1 <0>        -0.1907
      8 C6          1.4601   -5.6837   -1.9395 C.ar      1 <0>        -0.0765
      9 C7          1.5746   -6.5766   -0.8823 C.ar      1 <0>         0.1008
     10 C8          1.6169   -6.1046    0.4228 C.ar      1 <0>        -0.0995
     11 C9          1.5508   -4.7473    0.6682 C.ar      1 <0>        -0.1317
     12 N1          1.6469   -7.9533   -1.1324 N.am      1 <0>        -0.6652
     13 C10         2.2565   -8.4047   -2.2464 C.2       1 <0>         0.5094
     14 O3          2.8254   -7.6276   -2.9837 O.2       1 <0>        -0.5154
     15 C11         2.2312   -9.8750   -2.5761 C.3       1 <0>         0.1035
     16 N2          2.9577  -10.1076   -3.8268 N.pl3     1 <0>        -0.7277
     17 C12         3.0699  -11.3966   -4.3362 C.ar      1 <0>         0.2472
     18 C13         2.4864  -12.4642   -3.6595 C.ar      1 <0>        -0.2110
     19 C14         2.5957  -13.7409   -4.1611 C.ar      1 <0>        -0.0039
     20 C15         3.2935  -13.9653   -5.3515 C.ar      1 <0>        -0.2001
     21 C16         3.8783  -12.8912   -6.0286 C.ar      1 <0>        -0.0322
     22 C17         3.7606  -11.6160   -5.5249 C.ar      1 <0>        -0.2000
     23 C18         3.4130  -15.3328   -5.8917 C.2       1 <0>         0.5682
     24 O4          2.9042  -16.2663   -5.3015 O.2       1 <0>        -0.5414
     25 N3          4.0860  -15.5476   -7.0395 N.am      1 <0>        -0.7294
     26 C19         4.2047  -16.9056   -7.5759 C.3       1 <0>         0.2045
     27 C20         4.9982  -16.8723   -8.8566 C.2       1 <0>        -0.0421
     28 C21         6.3330  -17.0037   -8.9586 C.2       1 <0>        -0.1815
     29 C22         6.6499  -16.9115  -10.3334 C.2       1 <0>        -0.2181
     30 C23         5.4897  -16.7292  -10.9893 C.2       1 <0>        -0.0270
     31 O5          4.4921  -16.7120  -10.0903 O.3       1 <0>        -0.1714
     32 H1          1.6747    1.6505    1.0199 H         1 <0>         0.0434
     33 H2          3.4300    1.6945    0.7278 H         1 <0>         0.0885
     34 H3          2.3013    2.1854   -0.5580 H         1 <0>         0.0423
     35 H4          0.3633   -0.0908   -0.0911 H         1 <0>         0.0624
     36 H5          0.9898    0.4441   -1.6690 H         1 <0>         0.0730
     37 H6          0.3269   -1.9073   -1.8264 H         1 <0>         0.0793
     38 H7          2.1001   -1.7942   -1.9326 H         1 <0>         0.0730
     39 H8          1.2990   -3.6325   -2.5145 H         1 <0>         0.1316
     40 H9          1.4268   -6.0503   -2.9548 H         1 <0>         0.1363
     41 H10         1.7055   -6.7985    1.2455 H         1 <0>         0.1346
     42 H11         1.5881   -4.3797    1.6830 H         1 <0>         0.1371
     43 H12         1.2583   -8.5815   -0.5037 H         1 <0>         0.4141
     44 H13         2.7052  -10.4361   -1.7707 H         1 <0>         0.0989
     45 H14         1.1983  -10.2043   -2.6892 H         1 <0>         0.1000
     46 H15         3.3605   -9.3625   -4.2995 H         1 <0>         0.4145
     47 H16         1.9477  -12.2902   -2.7397 H         1 <0>         0.1285
     48 H17         2.1431  -14.5688   -3.6355 H         1 <0>         0.1368
     49 H18         4.4183  -13.0614   -6.9483 H         1 <0>         0.1245
     50 H19         4.2081  -10.7851   -6.0500 H         1 <0>         0.1288
     51 H20         4.4919  -14.8029   -7.5103 H         1 <0>         0.4024
     52 H21         4.7131  -17.5400   -6.8499 H         1 <0>         0.1012
     53 H22         3.2105  -17.3058   -7.7749 H         1 <0>         0.0870
     54 H23         7.0292  -17.1509   -8.1461 H         1 <0>         0.1516
     55 H24         7.6345  -16.9749  -10.7726 H         1 <0>         0.1517
     56 H25         5.3789  -16.6193  -12.0580 H         1 <0>         0.2059
@<TRIPOS>BOND
     1    1    2 1
     2    1   32 1
     3    1   33 1
     4    1   34 1
     5    2    3 1
     6    3    4 1
     7    3   35 1
     8    3   36 1
     9    4    5 1
    10    4   37 1
    11    4   38 1
    12    5    6 1
    13    6   11 ar
    14    6    7 ar
    15    7    8 ar
    16    7   39 1
    17    8    9 ar
    18    8   40 1
    19    9   10 ar
    20    9   12 1
    21   10   11 ar
    22   10   41 1
    23   11   42 1
    24   12   13 am
    25   12   43 1
    26   13   14 2
    27   13   15 1
    28   15   16 1
    29   15   44 1
    30   15   45 1
    31   16   17 1
    32   16   46 1
    33   17   22 ar
    34   17   18 ar
    35   18   19 ar
    36   18   47 1
    37   19   20 ar
    38   19   48 1
    39   20   21 ar
    40   20   23 1
    41   21   22 ar
    42   21   49 1
    43   22   50 1
    44   23   24 2
    45   23   25 am
    46   25   26 1
    47   25   51 1
    48   26   27 1
    49   26   52 1
    50   26   53 1
    51   27   31 1
    52   27   28 2
    53   28   29 1
    54   28   54 1
    55   29   30 2
    56   29   55 1
    57   30   31 1
    58   30   56 1
@<TRIPOS>MOLECULE
ZINC13617460
   51    52     0     0     0
SMALL
USER_CHARGES
2-ethoxy-N-[[4-(2-methoxyethylcarbamoyl)phenyl]carbamothioyl]benzamide
@<TRIPOS>ATOM
      1 C1          5.9105   -1.3920   -1.6605 C.3       1 <0>        -0.1519
      2 C2          6.0708    0.1052   -1.3896 C.3       1 <0>         0.0489
      3 O1          4.7924    0.6777   -1.1066 O.3       1 <0>        -0.2796
      4 C3          4.7581    2.0077   -0.8422 C.ar      1 <0>         0.1974
      5 C4          5.9292    2.7509   -0.8543 C.ar      1 <0>        -0.2174
      6 C5          5.8927    4.1045   -0.5855 C.ar      1 <0>        -0.0442
      7 C6          4.6897    4.7308   -0.3021 C.ar      1 <0>        -0.1647
      8 C7          3.5159    4.0095   -0.2913 C.ar      1 <0>        -0.0514
      9 C8          3.5390    2.6375   -0.5559 C.ar      1 <0>        -0.1789
     10 C9          2.2874    1.8580   -0.5400 C.2       1 <0>         0.5323
     11 O2          2.3108    0.6657   -0.7756 O.2       1 <0>        -0.3792
     12 N1          1.1174    2.4675   -0.2642 N.am      1 <0>        -0.6393
     13 C10        -0.0266    1.7551   -0.2497 C.2       1 <0>         0.5088
     14 S1          0.0064    0.0759   -0.5815 S.2       1 <0>        -0.4749
     15 N2         -1.1974    2.3657    0.0206 N.pl3     1 <0>        -0.6253
     16 C11        -2.3929    1.6572   -0.0828 C.ar      1 <0>         0.1507
     17 C12        -2.5989    0.7960   -1.1563 C.ar      1 <0>        -0.0811
     18 C13        -3.7764    0.0904   -1.2583 C.ar      1 <0>        -0.0754
     19 C14        -4.7702    0.2483   -0.2883 C.ar      1 <0>        -0.1296
     20 C15        -4.5624    1.1183    0.7855 C.ar      1 <0>        -0.0505
     21 C16        -3.3803    1.8167    0.8847 C.ar      1 <0>        -0.1286
     22 C17        -6.0361   -0.5024   -0.3975 C.2       1 <0>         0.5601
     23 O3         -6.8996   -0.3643    0.4473 O.2       1 <0>        -0.5376
     24 N3         -6.2350   -1.3410   -1.4337 N.am      1 <0>        -0.7209
     25 C18        -7.4916   -2.0863   -1.5421 C.3       1 <0>         0.1217
     26 C19        -7.4605   -2.9585   -2.7988 C.3       1 <0>         0.0459
     27 O4         -6.4422   -3.9519   -2.6640 O.3       1 <0>        -0.3891
     28 C20        -6.3288   -4.8245   -3.7899 C.3       1 <0>         0.0301
     29 H1          6.8856   -1.8287   -1.8764 H         1 <0>         0.0790
     30 H2          5.4818   -1.8762   -0.7831 H         1 <0>         0.0694
     31 H3          5.2498   -1.5379   -2.5152 H         1 <0>         0.0692
     32 H4          6.4995    0.5894   -2.2670 H         1 <0>         0.0645
     33 H5          6.7315    0.2511   -0.5350 H         1 <0>         0.0645
     34 H6          6.8708    2.2700   -1.0747 H         1 <0>         0.1389
     35 H7          6.8073    4.6788   -0.5966 H         1 <0>         0.1339
     36 H8          4.6714    5.7903   -0.0934 H         1 <0>         0.1336
     37 H9          2.5800    4.5028   -0.0746 H         1 <0>         0.1279
     38 H10         1.0986    3.4190   -0.0763 H         1 <0>         0.4076
     39 H11        -1.2078    3.2983    0.2871 H         1 <0>         0.4089
     40 H12        -1.8325    0.6780   -1.9080 H         1 <0>         0.1461
     41 H13        -3.9338   -0.5815   -2.0891 H         1 <0>         0.1316
     42 H14        -5.3282    1.2423    1.5369 H         1 <0>         0.1430
     43 H15        -3.2189    2.4889    1.7145 H         1 <0>         0.1337
     44 H16        -5.5461   -1.4512   -2.1076 H         1 <0>         0.4041
     45 H17        -7.6156   -2.7193   -0.6635 H         1 <0>         0.0797
     46 H18        -8.3247   -1.3863   -1.6062 H         1 <0>         0.0862
     47 H19        -8.4276   -3.4445   -2.9277 H         1 <0>         0.0693
     48 H20        -7.2480   -2.3360   -3.6679 H         1 <0>         0.0580
     49 H21        -7.2724   -5.3493   -3.9394 H         1 <0>         0.0432
     50 H22        -6.0928   -4.2407   -4.6797 H         1 <0>         0.0429
     51 H23        -5.5347   -5.5491   -3.6096 H         1 <0>         0.0888
@<TRIPOS>BOND
     1    1    2 1
     2    1   29 1
     3    1   30 1
     4    1   31 1
     5    2    3 1
     6    2   32 1
     7    2   33 1
     8    3    4 1
     9    4    9 ar
    10    4    5 ar
    11    5    6 ar
    12    5   34 1
    13    6    7 ar
    14    6   35 1
    15    7    8 ar
    16    7   36 1
    17    8    9 ar
    18    8   37 1
    19    9   10 1
    20   10   11 2
    21   10   12 am
    22   12   13 1
    23   12   38 1
    24   13   14 2
    25   13   15 1
    26   15   16 1
    27   15   39 1
    28   16   21 ar
    29   16   17 ar
    30   17   18 ar
    31   17   40 1
    32   18   19 ar
    33   18   41 1
    34   19   20 ar
    35   19   22 1
    36   20   21 ar
    37   20   42 1
    38   21   43 1
    39   22   23 2
    40   22   24 am
    41   24   25 1
    42   24   44 1
    43   25   26 1
    44   25   45 1
    45   25   46 1
    46   26   27 1
    47   26   47 1
    48   26   48 1
    49   27   28 1
    50   28   49 1
    51   28   50 1
    52   28   51 1
@<TRIPOS>MOLECULE
ZINC20970413
   60    62     0     0     0
SMALL
USER_CHARGES
[2-(4-benzyl-1-piperidyl)-2-oxo-ethyl] (3S)-3-(4-chlorophenyl)-3-ureido-propanoate
@<TRIPOS>ATOM
      1 C1          0.7869   -2.5324   12.0693 C.ar      1 <0>        -0.1246
      2 C2          1.4663   -2.3527   10.8789 C.ar      1 <0>        -0.1182
      3 C3          1.6652   -1.0781   10.3822 C.ar      1 <0>        -0.1184
      4 C4          1.1839    0.0168   11.0753 C.ar      1 <0>        -0.0799
      5 C5          0.5086   -0.1626   12.2681 C.ar      1 <0>        -0.1181
      6 C6          0.3059   -1.4374   12.7627 C.ar      1 <0>        -0.1172
      7 C7          1.4007    1.4063   10.5337 C.3       1 <0>        -0.0782
      8 C8          0.2298    1.7882    9.6259 C.3       1 <0>        -0.0812
      9 C9          0.3869    3.2425    9.1759 C.3       1 <0>        -0.1308
     10 C10        -0.8045    3.6318    8.2952 C.3       1 <0>         0.1107
     11 N1         -0.9125    2.6672    7.1922 N.am      1 <0>        -0.6078
     12 C11        -0.9836    1.2347    7.5110 C.3       1 <0>         0.1002
     13 C12         0.2154    0.8719    8.4002 C.3       1 <0>        -0.1336
     14 C13        -0.9511    3.0887    5.9126 C.2       1 <0>         0.5182
     15 O1         -0.8966    4.2742    5.6628 O.2       1 <0>        -0.5159
     16 C14        -1.0620    2.0869    4.7923 C.3       1 <0>         0.0482
     17 O2         -1.0847    2.7849    3.5193 O.3       1 <0>        -0.3332
     18 C15        -1.1810    2.0312    2.4127 C.2       1 <0>         0.4600
     19 O3         -1.2441    0.8282    2.5048 O.2       1 <0>        -0.4892
     20 C16        -1.2103    2.6857    1.0556 C.3       1 <0>        -0.1180
     21 C17        -1.3234    1.6103   -0.0269 C.3       1 <0>         0.2197
     22 H1         -2.1799    0.9468    0.1632 H         1 <0>         0.1125
     23 C18        -1.4763    2.2679   -1.3742 C.ar      1 <0>        -0.0959
     24 C19        -0.3784    2.8331   -1.9957 C.ar      1 <0>        -0.0888
     25 C20        -0.5169    3.4314   -3.2339 C.ar      1 <0>        -0.1120
     26 C21        -1.7567    3.4744   -3.8463 C.ar      1 <0>        -0.0309
     27 C22        -2.8562    2.9135   -3.2213 C.ar      1 <0>        -0.1089
     28 C23        -2.7154    2.3106   -1.9856 C.ar      1 <0>        -0.0860
     29 Cl1        -1.9329    4.2324   -5.3982 Cl        1 <0>        -0.0687
     30 N2         -0.1144    0.7830   -0.0216 N.am      1 <0>        -0.7474
     31 C24        -0.1645   -0.4864   -0.4716 C.2       1 <0>         0.7171
     32 O4         -1.2288   -0.9726   -0.8024 O.2       1 <0>        -0.5974
     33 N3          0.9650   -1.2169   -0.5549 N.am      1 <0>        -0.8921
     34 H2          0.6315   -3.5282   12.4574 H         1 <0>         0.1207
     35 H3          1.8421   -3.2081   10.3372 H         1 <0>         0.1211
     36 H4          2.1964   -0.9377    9.4523 H         1 <0>         0.1202
     37 H5          0.1364    0.6931   12.8118 H         1 <0>         0.1204
     38 H6         -0.2252   -1.5778   13.6925 H         1 <0>         0.1212
     39 H7          1.4650    2.1194   11.3688 H         1 <0>         0.0758
     40 H8          2.3364    1.4328    9.9560 H         1 <0>         0.0736
     41 H9         -0.7149    1.6759   10.1781 H         1 <0>         0.0766
     42 H10         0.4217    3.8978   10.0588 H         1 <0>         0.0804
     43 H11         1.3194    3.3502    8.6024 H         1 <0>         0.0697
     44 H12        -1.7256    3.6156    8.8963 H         1 <0>         0.0718
     45 H13        -0.6475    4.6432    7.8921 H         1 <0>         0.0971
     46 H14        -1.9228    1.0238    8.0434 H         1 <0>         0.0771
     47 H15        -0.9506    0.6498    6.5800 H         1 <0>         0.0850
     48 H16         1.1485    1.0038    7.8329 H         1 <0>         0.0694
     49 H17         0.1293   -0.1752    8.7261 H         1 <0>         0.0844
     50 H18        -0.1982    1.4065    4.8220 H         1 <0>         0.1025
     51 H19        -1.9895    1.5072    4.9092 H         1 <0>         0.1031
     52 H20        -2.0760    3.3614    0.9930 H         1 <0>         0.1284
     53 H21        -0.2847    3.2608    0.9058 H         1 <0>         0.1182
     54 H22         0.5885    2.8034   -1.5155 H         1 <0>         0.1289
     55 H23         0.3418    3.8691   -3.7214 H         1 <0>         0.1337
     56 H24        -3.8244    2.9471   -3.6987 H         1 <0>         0.1357
     57 H25        -3.5737    1.8730   -1.4974 H         1 <0>         0.1346
     58 H26         0.8343    1.1979    0.3497 H         1 <0>         0.4093
     59 H27         0.9241   -2.2530   -0.9222 H         1 <0>         0.4365
     60 H28         1.9278   -0.7771   -0.2556 H         1 <0>         0.4107
@<TRIPOS>BOND
     1    1    6 ar
     2    1    2 ar
     3    1   34 1
     4    2    3 ar
     5    2   35 1
     6    3    4 ar
     7    3   36 1
     8    4    5 ar
     9    4    7 1
    10    5    6 ar
    11    5   37 1
    12    6   38 1
    13    7    8 1
    14    7   39 1
    15    7   40 1
    16    8   13 1
    17    8    9 1
    18    8   41 1
    19    9   10 1
    20    9   42 1
    21    9   43 1
    22   10   11 1
    23   10   44 1
    24   10   45 1
    25   11   12 1
    26   11   14 am
    27   12   13 1
    28   12   46 1
    29   12   47 1
    30   13   48 1
    31   13   49 1
    32   14   15 2
    33   14   16 1
    34   16   17 1
    35   16   50 1
    36   16   51 1
    37   17   18 1
    38   18   19 2
    39   18   20 1
    40   20   21 1
    41   20   52 1
    42   20   53 1
    43   21   22 1
    44   21   23 1
    45   21   30 1
    46   23   28 ar
    47   23   24 ar
    48   24   25 ar
    49   24   54 1
    50   25   26 ar
    51   25   55 1
    52   26   27 ar
    53   26   29 1
    54   27   28 ar
    55   27   56 1
    56   28   57 1
    57   30   31 am
    58   30   58 1
    59   31   32 2
    60   31   33 am
    61   33   59 1
    62   33   60 1
@<TRIPOS>MOLECULE
ZINC34257628
   49    49     0     0     0
SMALL
USER_CHARGES

@<TRIPOS>ATOM
      1 C1         -0.1977    1.5440   -0.1183 C.3       1 <0>        -0.1469
      2 C2         -0.1539    0.0167   -0.0384 C.3       1 <0>         0.0619
      3 O1         -1.4170   -0.5176   -0.4398 O.3       1 <0>        -0.3131
      4 C3         -1.5458   -1.8554   -0.4260 C.2       1 <0>         0.4862
      5 O2         -0.5124   -2.6261   -0.0461 O.3       1 <0>        -0.5817
      6 C4         -2.7527   -2.4442   -0.8061 C.2       1 <0>        -0.3781
      7 C5         -2.8879   -3.8481   -0.7917 C.2       1 <0>         0.3163
      8 N1         -1.8755   -4.6031   -0.4195 N.2       1 <0>        -0.5755
      9 C6         -2.0042   -5.9401   -0.4057 C.2       1 <0>         0.5552
     10 S1         -3.4847   -6.6624   -0.8720 S.2       1 <0>        -0.7725
     11 N2         -0.9679   -6.7130   -0.0248 N.pl3     1 <0>        -0.6095
     12 C7         -1.1285   -8.0989    0.0749 C.ar      1 <0>         0.1356
     13 C8         -1.7743   -8.7989   -0.9360 C.ar      1 <0>        -0.0552
     14 C9         -1.9316  -10.1672   -0.8351 C.ar      1 <0>        -0.1072
     15 C10        -1.4465  -10.8409    0.2722 C.ar      1 <0>        -0.0345
     16 C11        -0.8031  -10.1459    1.2811 C.ar      1 <0>        -0.1089
     17 C12        -0.6376   -8.7783    1.1823 C.ar      1 <0>        -0.1148
     18 Cl1        -1.6460  -12.5609    0.3959 Cl        1 <0>        -0.0770
     19 C13        -3.8812   -1.6026   -1.2210 C.2       1 <0>         0.5906
     20 O3         -3.7646   -0.3914   -1.2335 O.2       1 <0>        -0.5417
     21 N3         -5.0467   -2.1712   -1.5881 N.am      1 <0>        -0.7475
     22 C14        -6.1732   -1.3311   -2.0022 C.3       1 <0>         0.1040
     23 C15        -7.3653   -2.2190   -2.3646 C.3       1 <0>        -0.0255
     24 N4         -8.4949   -1.3766   -2.7799 N.4       1 <0>        -0.3824
     25 C16        -8.1476   -0.6676   -4.0187 C.3       1 <0>        -0.0544
     26 C17        -9.6750   -2.2199   -3.0127 C.3       1 <0>        -0.0456
     27 H1          0.7658    1.9515    0.1879 H         1 <0>         0.0711
     28 H2         -0.4119    1.8483   -1.1428 H         1 <0>         0.0615
     29 H3         -0.9780    1.9202    0.5432 H         1 <0>         0.0615
     30 H4          0.6265   -0.3595   -0.6999 H         1 <0>         0.0593
     31 H5          0.0603   -0.2876    0.9861 H         1 <0>         0.0592
     32 H6         -3.8218   -4.3037   -1.0858 H         1 <0>         0.1197
     33 H7         -0.1106   -6.3082    0.1803 H         1 <0>         0.4157
     34 H8         -2.1534   -8.2736   -1.8002 H         1 <0>         0.1558
     35 H9         -2.4340  -10.7119   -1.6207 H         1 <0>         0.1343
     36 H10        -0.4258  -10.6740    2.1443 H         1 <0>         0.1350
     37 H11        -0.1311   -8.2370    1.9678 H         1 <0>         0.1327
     38 H12        -5.1396   -3.1367   -1.5781 H         1 <0>         0.4044
     39 H13        -6.4507   -0.6664   -1.1841 H         1 <0>         0.0813
     40 H14        -5.8845   -0.7383   -2.8701 H         1 <0>         0.0818
     41 H15        -7.0878   -2.8837   -3.1827 H         1 <0>         0.1374
     42 H16        -7.6540   -2.8118   -1.4967 H         1 <0>         0.1386
     43 H17        -8.9857   -0.0425   -4.3267 H         1 <0>         0.1237
     44 H18        -7.2719   -0.0419   -3.8459 H         1 <0>         0.1280
     45 H19        -7.9273   -1.3922   -4.8025 H         1 <0>         0.1233
     46 H20        -9.9327   -2.7460   -2.0935 H         1 <0>         0.1239
     47 H21       -10.5131   -1.5948   -3.3208 H         1 <0>         0.1234
     48 H22        -9.4548   -2.9445   -3.7966 H         1 <0>         0.1224
     49 H23        -8.6988   -0.7058   -2.0542 H         1 <0>         0.4283
@<TRIPOS>BOND
     1    1    2 1
     2    1   27 1
     3    1   28 1
     4    1   29 1
     5    2    3 1
     6    2   30 1
     7    2   31 1
     8    3    4 1
     9    4    5 1
    10    4    6 2
    11    6   19 1
    12    6    7 1
    13    7   32 1
    14    7    8 2
    15    8    9 1
    16    9   10 2
    17    9   11 1
    18   11   12 1
    19   11   33 1
    20   12   17 ar
    21   12   13 ar
    22   13   14 ar
    23   13   34 1
    24   14   15 ar
    25   14   35 1
    26   15   16 ar
    27   15   18 1
    28   16   17 ar
    29   16   36 1
    30   17   37 1
    31   19   20 2
    32   19   21 am
    33   21   22 1
    34   21   38 1
    35   22   23 1
    36   22   39 1
    37   22   40 1
    38   23   24 1
    39   23   41 1
    40   23   42 1
    41   24   25 1
    42   24   26 1
    43   24   49 1
    44   25   43 1
    45   25   44 1
    46   25   45 1
    47   26   46 1
    48   26   47 1
    49   26   48 1
@<TRIPOS>MOLECULE
ZINC27613786
   63    66     0     0     0
SMALL
USER_CHARGES

@<TRIPOS>ATOM
      1 C1          1.2153   -0.6799    0.0011 C.ar      1 <0>        -0.1738
      2 C2          2.4001    0.0300   -0.0074 C.ar      1 <0>        -0.1008
      3 C3          2.3788    1.4144   -0.0149 C.ar      1 <0>         0.0344
      4 C4          1.1704    2.0903   -0.0135 C.ar      1 <0>        -0.1011
      5 C5         -0.0169    1.3846   -0.0046 C.ar      1 <0>        -0.1736
      6 C6          0.0021   -0.0041    0.0020 C.ar      1 <0>         0.2124
      7 N1         -1.1985   -0.7206    0.0101 N.pl3     1 <0>        -0.6299
      8 C7         -2.4903   -0.0278    0.1306 C.3       1 <0>         0.1255
      9 C8         -3.2917   -0.6850    1.2593 C.3       1 <0>         0.0415
     10 N2         -3.3827   -2.1304    1.0137 N.3       1 <0>        -0.5326
     11 C9         -2.0553   -2.7593    1.0363 C.3       1 <0>         0.0339
     12 C10        -1.2035   -2.1867   -0.1077 C.3       1 <0>         0.1250
     13 C11        -4.2859   -2.7725    1.9780 C.3       1 <0>         0.0454
     14 C12        -4.5513   -4.2159    1.5453 C.3       1 <0>         0.1208
     15 N3         -5.4520   -4.8562    2.5069 N.am      1 <0>        -0.7349
     16 C13        -5.8274   -6.1382    2.3283 C.2       1 <0>         0.5125
     17 O1         -5.4194   -6.7618    1.3714 O.2       1 <0>        -0.5354
     18 C14        -6.7540   -6.7969    3.3175 C.3       1 <0>        -0.1399
     19 C15        -7.0193   -8.2403    2.8848 C.3       1 <0>        -0.1038
     20 C16        -7.9601   -8.9090    3.8892 C.3       1 <0>        -0.1186
     21 C17        -8.2255  -10.3524    3.4565 C.3       1 <0>        -0.1027
     22 C18        -9.1662  -11.0211    4.4608 C.3       1 <0>        -0.0414
     23 H1        -10.0768  -10.4362    4.5902 H         1 <0>         0.1125
     24 C19        -9.4930  -12.4687    4.0352 C.3       1 <0>         0.1219
     25 H2        -10.4375  -12.4943    3.4916 H         1 <0>         0.1081
     26 C20        -9.5314  -13.4594    5.2025 C.3       1 <0>         0.1219
     27 H3        -10.4971  -13.9639    5.2335 H         1 <0>         0.1072
     28 C21        -9.2259  -12.8161    6.5723 C.3       1 <0>        -0.0842
     29 S1         -8.3209  -11.2975    6.0779 S.3       1 <0>        -0.2716
     30 N4         -8.4675  -14.4256    4.8862 N.am      1 <0>        -0.7338
     31 C22        -7.8900  -14.0755    3.7287 C.2       1 <0>         0.7040
     32 O2         -6.9764  -14.7018    3.2271 O.2       1 <0>        -0.5821
     33 N5         -8.4064  -12.9761    3.1825 N.am      1 <0>        -0.7265
     34 F1          3.5389    2.1068   -0.0231 F         1 <0>        -0.1461
     35 H4          1.2323   -1.7598    0.0025 H         1 <0>         0.1321
     36 H5          3.3438   -0.4952   -0.0077 H         1 <0>         0.1342
     37 H6          1.1561    3.1702   -0.0191 H         1 <0>         0.1341
     38 H7         -0.9592    1.9122   -0.0029 H         1 <0>         0.1318
     39 H8         -2.3217    1.0232    0.3651 H         1 <0>         0.0881
     40 H9         -3.0403   -0.1130   -0.8066 H         1 <0>         0.0731
     41 H10        -2.7910   -0.5086    2.2113 H         1 <0>         0.0410
     42 H11        -4.2940   -0.2576    1.2904 H         1 <0>         0.0884
     43 H12        -1.5718   -2.5540    1.9914 H         1 <0>         0.0418
     44 H13        -2.1608   -3.8363    0.9056 H         1 <0>         0.0905
     45 H14        -1.6322   -2.4754   -1.0674 H         1 <0>         0.0742
     46 H15        -0.1837   -2.5636   -0.0308 H         1 <0>         0.0884
     47 H16        -3.8252   -2.7682    2.9658 H         1 <0>         0.0417
     48 H17        -5.2277   -2.2250    2.0139 H         1 <0>         0.0837
     49 H18        -5.0119   -4.2202    0.5574 H         1 <0>         0.0779
     50 H19        -3.6094   -4.7634    1.5094 H         1 <0>         0.0678
     51 H20        -5.7783   -4.3574    3.2723 H         1 <0>         0.4003
     52 H21        -6.2933   -6.7926    4.3054 H         1 <0>         0.0939
     53 H22        -7.6958   -6.2494    3.3534 H         1 <0>         0.0942
     54 H23        -7.4800   -8.2446    1.8970 H         1 <0>         0.0714
     55 H24        -6.0775   -8.7878    2.8489 H         1 <0>         0.0716
     56 H25        -7.4994   -8.9047    4.8770 H         1 <0>         0.0691
     57 H26        -8.9019   -8.3615    3.9251 H         1 <0>         0.0662
     58 H27        -8.6861  -10.3567    2.4686 H         1 <0>         0.0800
     59 H28        -7.2836  -10.8999    3.4206 H         1 <0>         0.0827
     60 H29       -10.1455  -12.5514    7.0941 H         1 <0>         0.1050
     61 H30        -8.6061  -13.4723    7.1834 H         1 <0>         0.1174
     62 H31        -8.2234  -15.1921    5.4283 H         1 <0>         0.4321
     63 H32        -8.1107  -12.5766    2.3496 H         1 <0>         0.4328
@<TRIPOS>BOND
     1    1    6 ar
     2    1    2 ar
     3    1   35 1
     4    2    3 ar
     5    2   36 1
     6    3    4 ar
     7    3   34 1
     8    4    5 ar
     9    4   37 1
    10    5    6 ar
    11    5   38 1
    12    6    7 1
    13    7   12 1
    14    7    8 1
    15    8    9 1
    16    8   39 1
    17    8   40 1
    18    9   10 1
    19    9   41 1
    20    9   42 1
    21   10   11 1
    22   10   13 1
    23   11   12 1
    24   11   43 1
    25   11   44 1
    26   12   45 1
    27   12   46 1
    28   13   14 1
    29   13   47 1
    30   13   48 1
    31   14   15 1
    32   14   49 1
    33   14   50 1
    34   15   16 am
    35   15   51 1
    36   16   17 2
    37   16   18 1
    38   18   19 1
    39   18   52 1
    40   18   53 1
    41   19   20 1
    42   19   54 1
    43   19   55 1
    44   20   21 1
    45   20   56 1
    46   20   57 1
    47   21   22 1
    48   21   58 1
    49   21   59 1
    50   22   23 1
    51   22   29 1
    52   22   24 1
    53   24   25 1
    54   24   33 1
    55   24   26 1
    56   26   27 1
    57   26   28 1
    58   26   30 1
    59   28   29 1
    60   28   60 1
    61   28   61 1
    62   30   31 am
    63   30   62 1
    64   31   32 2
    65   31   33 am
    66   33   63 1
@<TRIPOS>MOLECULE
ZINC67189984
   53    54     0     0     0
SMALL
USER_CHARGES

@<TRIPOS>ATOM
      1 C1         -0.0167    1.3804    0.0096 C.ar      1 <0>        -0.1748
      2 C2          1.1709    2.0870    0.0021 C.ar      1 <0>         0.0120
      3 C3          2.3774    1.4122   -0.0131 C.ar      1 <0>        -0.6941
      4 C4          2.3973    0.0299   -0.0211 C.ar      1 <0>         0.0078
      5 C5          1.2110   -0.6789   -0.0136 C.ar      1 <0>        -0.1748
      6 C6          0.0021   -0.0041    0.0020 C.ar      1 <0>         0.1584
      7 F1         -1.1583   -0.6959    0.0094 F         1 <0>        -0.1275
      8 S1          3.8907    2.3146   -0.0227 S.o2      1 <0>         2.6989
      9 O1          4.8720    1.4559   -0.5875 O.2       1 <0>        -0.9510
     10 O2          3.5966    3.5951   -0.5638 O.2       1 <0>        -0.9528
     11 N1          4.3264    2.5568    1.5565 N.pl3     1 <0>        -1.1155
     12 C7          4.6694    1.4132    2.4055 C.3       1 <0>         0.1127
     13 C8          5.3812    1.9090    3.6658 C.3       1 <0>        -0.1121
     14 C9          5.7395    0.7146    4.5524 C.3       1 <0>        -0.1311
     15 C10         6.4406    1.2029    5.7938 C.2       1 <0>         0.5144
     16 O3          6.6345    2.3894    5.9537 O.2       1 <0>        -0.5371
     17 N2          6.8520    0.3211    6.7264 N.am      1 <0>        -0.5259
     18 N3          7.5037    0.7751    7.8805 N.am      1 <0>        -0.5282
     19 C11         7.9152   -0.1067    8.8130 C.2       1 <0>         0.5148
     20 O4          7.7212   -1.2931    8.6531 O.2       1 <0>        -0.5323
     21 C12         8.6162    0.3816   10.0544 C.3       1 <0>        -0.1285
     22 C13         8.9745   -0.8127   10.9410 C.3       1 <0>        -0.0702
     23 C14         7.6916   -1.4823   11.4376 C.3       1 <0>        -0.1208
     24 C15         8.0499   -2.6767   12.3242 C.3       1 <0>        -0.1179
     25 C16         8.8702   -2.1945   13.5223 C.3       1 <0>        -0.1218
     26 C17        10.1531   -1.5249   13.0257 C.3       1 <0>        -0.1193
     27 C18         9.7948   -0.3306   12.1392 C.3       1 <0>        -0.1154
     28 H1         -0.9590    1.9078    0.0260 H         1 <0>         0.1480
     29 H2          1.1565    3.1669    0.0077 H         1 <0>         0.1520
     30 H3          3.3404   -0.4962   -0.0337 H         1 <0>         0.1520
     31 H4          1.2268   -1.7587   -0.0203 H         1 <0>         0.1481
     32 H5          4.3544    3.4559    1.9195 H         1 <0>         0.4225
     33 H6          3.7593    0.8835    2.6867 H         1 <0>         0.0690
     34 H7          5.3278    0.7388    1.8579 H         1 <0>         0.0853
     35 H8          6.2914    2.4386    3.3845 H         1 <0>         0.0851
     36 H9          4.7229    2.5834    4.2134 H         1 <0>         0.0827
     37 H10         4.8293    0.1849    4.8337 H         1 <0>         0.1051
     38 H11         6.3978    0.0402    4.0048 H         1 <0>         0.1068
     39 H12         6.6968   -0.6278    6.5985 H         1 <0>         0.4326
     40 H13         7.6589    1.7240    8.0083 H         1 <0>         0.4319
     41 H14         9.5264    0.9113    9.7731 H         1 <0>         0.1009
     42 H15         7.9579    1.0561   10.6020 H         1 <0>         0.1003
     43 H16         9.5594   -1.5301   10.3653 H         1 <0>         0.0805
     44 H17         7.1067   -0.7650   12.0133 H         1 <0>         0.0558
     45 H18         7.1072   -1.8258   10.5840 H         1 <0>         0.0794
     46 H19         7.1359   -3.1537   12.6779 H         1 <0>         0.0599
     47 H20         8.6347   -3.3940   11.7484 H         1 <0>         0.0618
     48 H21         8.2853   -1.4772   14.0980 H         1 <0>         0.0605
     49 H22         9.1254   -3.0454   14.1539 H         1 <0>         0.0602
     50 H23        10.7375   -1.1814   13.8793 H         1 <0>         0.0624
     51 H24        10.7380   -2.2423   12.4500 H         1 <0>         0.0622
     52 H25        10.7088    0.1465   11.7854 H         1 <0>         0.0633
     53 H26         9.2100    0.3868   12.7149 H         1 <0>         0.0639
@<TRIPOS>BOND
     1    1    6 ar
     2    1    2 ar
     3    1   28 1
     4    2    3 ar
     5    2   29 1
     6    3    4 ar
     7    3    8 1
     8    4    5 ar
     9    4   30 1
    10    5    6 ar
    11    5   31 1
    12    6    7 1
    13    8    9 2
    14    8   10 2
    15    8   11 1
    16   11   12 1
    17   11   32 1
    18   12   13 1
    19   12   33 1
    20   12   34 1
    21   13   14 1
    22   13   35 1
    23   13   36 1
    24   14   15 1
    25   14   37 1
    26   14   38 1
    27   15   16 2
    28   15   17 am
    29   17   18 1
    30   17   39 1
    31   18   19 am
    32   18   40 1
    33   19   20 2
    34   19   21 1
    35   21   22 1
    36   21   41 1
    37   21   42 1
    38   22   27 1
    39   22   23 1
    40   22   43 1
    41   23   24 1
    42   23   44 1
    43   23   45 1
    44   24   25 1
    45   24   46 1
    46   24   47 1
    47   25   26 1
    48   25   48 1
    49   25   49 1
    50   26   27 1
    51   26   50 1
    52   26   51 1
    53   27   52 1
    54   27   53 1
@<TRIPOS>MOLECULE
ZINC12037543
   63    66     0     0     0
SMALL
USER_CHARGES
N-[2-(5-chloro-2-methyl-1H-indol-3-yl)ethyl]-3-[(2S)-2-[(2-fluoro-5-methoxy-phenyl)methyl]-5-oxo-pyrrolidin-2-yl]propanamide
@<TRIPOS>ATOM
      1 C1         -4.8059    2.5263   -0.5483 C.3       1 <0>        -0.0993
      2 C2         -3.8780    3.1714    0.4486 C.2       1 <0>         0.0972
      3 C3         -2.9192    2.5306    1.1358 C.2       1 <0>        -0.1691
      4 C4         -2.2648    3.5263    1.9881 C.ar      1 <0>        -0.0870
      5 C5         -1.2132    3.4774    2.9055 C.ar      1 <0>        -0.0619
      6 C6         -0.8231    4.6173    3.5517 C.ar      1 <0>        -0.0558
      7 C7         -1.4617    5.8249    3.2990 C.ar      1 <0>        -0.0921
      8 C8         -2.4973    5.8957    2.3936 C.ar      1 <0>        -0.1129
      9 C9         -2.9101    4.7480    1.7244 C.ar      1 <0>         0.0996
     10 N1         -3.8877    4.4971    0.7871 N.pl3     1 <0>        -0.5882
     11 H1         -4.4927    5.1612    0.4214 H         1 <0>         0.4178
     12 Cl1         0.4799    4.5551    4.6972 Cl        1 <0>        -0.0724
     13 C10        -2.5840    1.0638    1.0513 C.3       1 <0>        -0.0534
     14 C11        -1.5280    0.8437   -0.0337 C.3       1 <0>         0.1236
     15 N2         -1.2021   -0.5822   -0.1159 N.am      1 <0>        -0.7340
     16 C12        -0.2895   -1.0146   -1.0085 C.2       1 <0>         0.5132
     17 O1          0.2618   -0.2232   -1.7437 O.2       1 <0>        -0.5367
     18 C13         0.0457   -2.4814   -1.0930 C.3       1 <0>        -0.1449
     19 C14         1.1017   -2.7015   -2.1780 C.3       1 <0>        -0.1058
     20 C15         1.4672   -4.1859   -2.2403 C.3       1 <0>         0.1660
     21 C16         2.3818   -4.4608   -3.4546 C.3       1 <0>        -0.1295
     22 C17         1.3555   -4.8721   -4.5355 C.3       1 <0>        -0.1568
     23 C18         0.1733   -5.3904   -3.7466 C.2       1 <0>         0.5217
     24 O2         -0.7255   -6.0641   -4.2041 O.2       1 <0>        -0.5340
     25 N3          0.2643   -4.9962   -2.4648 N.am      1 <0>        -0.7217
     26 C19         2.1602   -4.6145   -0.9454 C.3       1 <0>        -0.0875
     27 C20         2.3900   -6.1037   -0.9678 C.ar      1 <0>        -0.0712
     28 C21         3.5959   -6.6097   -1.4138 C.ar      1 <0>        -0.1245
     29 C22         3.8093   -7.9800   -1.4285 C.ar      1 <0>         0.1240
     30 C23         2.8071   -8.8414   -1.0064 C.ar      1 <0>        -0.1829
     31 C24         1.6003   -8.3331   -0.5667 C.ar      1 <0>        -0.1071
     32 C25         1.3908   -6.9644   -0.5468 C.ar      1 <0>         0.0675
     33 F1          0.2104   -6.4685   -0.1156 F         1 <0>        -0.1391
     34 O3          4.9974   -8.4790   -1.8615 O.3       1 <0>        -0.3130
     35 C26         5.1453   -9.9003   -1.8550 C.3       1 <0>         0.0248
     36 H2         -5.7010    2.1734   -0.0361 H         1 <0>         0.0815
     37 H3         -5.0860    3.2554   -1.3086 H         1 <0>         0.0720
     38 H4         -4.3018    1.6836   -1.0214 H         1 <0>         0.0869
     39 H5         -0.7129    2.5418    3.1072 H         1 <0>         0.1318
     40 H6         -1.1428    6.7171    3.8174 H         1 <0>         0.1370
     41 H7         -2.9870    6.8393    2.2034 H         1 <0>         0.1306
     42 H8         -3.4829    0.4994    0.8033 H         1 <0>         0.0778
     43 H9         -2.1949    0.7242    2.0112 H         1 <0>         0.0783
     44 H10        -0.6291    1.4082    0.2142 H         1 <0>         0.0694
     45 H11        -1.9171    1.1834   -0.9936 H         1 <0>         0.0670
     46 H12        -1.6431   -1.2152    0.4722 H         1 <0>         0.4010
     47 H13         0.4348   -2.8210   -0.1331 H         1 <0>         0.0970
     48 H14        -0.8532   -3.0458   -1.3410 H         1 <0>         0.0941
     49 H15         0.7037   -2.3846   -3.1420 H         1 <0>         0.0809
     50 H16         1.9916   -2.1178   -1.9427 H         1 <0>         0.0893
     51 H17         2.9194   -3.5597   -3.7499 H         1 <0>         0.0961
     52 H18         3.0747   -5.2755   -3.2445 H         1 <0>         0.0910
     53 H19         1.7645   -5.6580   -5.1705 H         1 <0>         0.1013
     54 H20         1.0655   -4.0088   -5.1344 H         1 <0>         0.1054
     55 H21        -0.3822   -5.2184   -1.7766 H         1 <0>         0.4092
     56 H22         3.1174   -4.1005   -0.8582 H         1 <0>         0.1007
     57 H23         1.5305   -4.3568   -0.0938 H         1 <0>         0.0883
     58 H24         4.3736   -5.9383   -1.7467 H         1 <0>         0.1435
     59 H25         2.9704   -9.9088   -1.0211 H         1 <0>         0.1379
     60 H26         0.8199   -9.0034   -0.2380 H         1 <0>         0.1383
     61 H27         5.0240  -10.2735   -0.8381 H         1 <0>         0.0576
     62 H28         4.3878  -10.3473   -2.4988 H         1 <0>         0.0577
     63 H29         6.1367  -10.1641   -2.2230 H         1 <0>         0.1039
@<TRIPOS>BOND
     1    1    2 1
     2    1   36 1
     3    1   37 1
     4    1   38 1
     5    2   10 1
     6    2    3 2
     7    3    4 1
     8    3   13 1
     9    4    9 ar
    10    4    5 ar
    11    5    6 ar
    12    5   39 1
    13    6    7 ar
    14    6   12 1
    15    7    8 ar
    16    7   40 1
    17    8    9 ar
    18    8   41 1
    19    9   10 1
    20   10   11 1
    21   13   14 1
    22   13   42 1
    23   13   43 1
    24   14   15 1
    25   14   44 1
    26   14   45 1
    27   15   16 am
    28   15   46 1
    29   16   17 2
    30   16   18 1
    31   18   19 1
    32   18   47 1
    33   18   48 1
    34   19   20 1
    35   19   49 1
    36   19   50 1
    37   20   25 1
    38   20   21 1
    39   20   26 1
    40   21   22 1
    41   21   51 1
    42   21   52 1
    43   22   23 1
    44   22   53 1
    45   22   54 1
    46   23   24 2
    47   23   25 am
    48   25   55 1
    49   26   27 1
    50   26   56 1
    51   26   57 1
    52   27   32 ar
    53   27   28 ar
    54   28   29 ar
    55   28   58 1
    56   29   30 ar
    57   29   34 1
    58   30   31 ar
    59   30   59 1
    60   31   32 ar
    61   31   60 1
    62   32   33 1
    63   34   35 1
    64   35   61 1
    65   35   62 1
    66   35   63 1
@<TRIPOS>MOLECULE
ZINC13978593
   51    52     0     0     0
SMALL
USER_CHARGES
2-(2-bromo-4-ethyl-phenoxy)-N-[[[2-(2-methylphenoxy)acetyl]amino]carbamothioyl]acetamide
@<TRIPOS>ATOM
      1 C1         -3.0131    4.1224   -1.3906 C.3       1 <0>        -0.1495
      2 C2         -2.5543    3.8665    0.0464 C.3       1 <0>        -0.0824
      3 C3         -1.2378    3.1333    0.0303 C.ar      1 <0>        -0.1089
      4 C4         -1.2179    1.7507    0.0173 C.ar      1 <0>        -0.0622
      5 C5         -0.0126    1.0758    0.0080 C.ar      1 <0>        -0.2014
      6 C6          1.1789    1.7862    0.0004 C.ar      1 <0>         0.1477
      7 C7          1.1567    3.1739    0.0081 C.ar      1 <0>        -0.1167
      8 C8         -0.0522    3.8442    0.0233 C.ar      1 <0>        -0.0494
      9 Br1         2.7783    4.1466   -0.0028 Br        1 <0>        -0.0249
     10 O1          2.3660    1.1244   -0.0150 O.3       1 <0>        -0.2739
     11 C9          2.3126   -0.3036   -0.0227 C.3       1 <0>         0.0451
     12 C10         3.7136   -0.8586   -0.0395 C.2       1 <0>         0.4872
     13 O2          4.6639   -0.1057   -0.0445 O.2       1 <0>        -0.3690
     14 N1          3.9102   -2.1919   -0.0491 N.am      1 <0>        -0.6446
     15 C11         5.1631   -2.6883   -0.0642 C.2       1 <0>         0.5147
     16 S1          6.5050   -1.6251   -0.0712 S.2       1 <0>        -0.4422
     17 N2          5.3597   -4.0216   -0.0737 N.pl3     1 <0>        -0.4537
     18 N3          4.2616   -4.8916   -0.0680 N.am      1 <0>        -0.5514
     19 C12         4.4582   -6.2249   -0.0776 C.2       1 <0>         0.5222
     20 O3          5.5857   -6.6716   -0.0911 O.2       1 <0>        -0.4866
     21 C13         3.2770   -7.1608   -0.0714 C.3       1 <0>         0.0535
     22 O4          3.7402   -8.5126   -0.0837 O.3       1 <0>        -0.2855
     23 C14         2.7948   -9.4888   -0.0800 C.ar      1 <0>         0.1203
     24 C15         1.4488   -9.1526   -0.0592 C.ar      1 <0>        -0.2059
     25 C16         0.4898  -10.1466   -0.0609 C.ar      1 <0>        -0.0864
     26 C17         0.8703  -11.4761   -0.0727 C.ar      1 <0>        -0.1472
     27 C18         2.2107  -11.8137   -0.0877 C.ar      1 <0>        -0.0822
     28 C19         3.1739  -10.8230   -0.0914 C.ar      1 <0>        -0.1058
     29 C20         4.6350  -11.1918   -0.1072 C.3       1 <0>        -0.1108
     30 H1         -3.9654    4.6527   -1.3790 H         1 <0>         0.0606
     31 H2         -2.2674    4.7260   -1.9080 H         1 <0>         0.0570
     32 H3         -3.1334    3.1709   -1.9085 H         1 <0>         0.0557
     33 H4         -3.3000    3.2629    0.5638 H         1 <0>         0.0749
     34 H5         -2.4340    4.8180    0.5643 H         1 <0>         0.0752
     35 H6         -2.1457    1.1978    0.0183 H         1 <0>         0.1331
     36 H7          0.0021   -0.0041    0.0020 H         1 <0>         0.1354
     37 H8         -0.0704    4.9240    0.0293 H         1 <0>         0.1408
     38 H9          1.7943   -0.6526    0.8704 H         1 <0>         0.1016
     39 H10         1.7769   -0.6424   -0.9094 H         1 <0>         0.1015
     40 H11         3.1499   -2.7943   -0.0451 H         1 <0>         0.4031
     41 H12         6.2614   -4.3788   -0.0846 H         1 <0>         0.4598
     42 H13         3.3598   -4.5344   -0.0571 H         1 <0>         0.4201
     43 H14         2.6818   -6.9888    0.8255 H         1 <0>         0.1036
     44 H15         2.6645   -6.9786   -0.9544 H         1 <0>         0.1034
     45 H16         1.1512   -8.1145   -0.0455 H         1 <0>         0.1270
     46 H17        -0.5581   -9.8854   -0.0489 H         1 <0>         0.1269
     47 H18         0.1189  -12.2519   -0.0699 H         1 <0>         0.1267
     48 H19         2.5054  -12.8527   -0.0962 H         1 <0>         0.1323
     49 H20         4.9968  -11.2867    0.9166 H         1 <0>         0.0709
     50 H21         4.7646  -12.1406   -0.6278 H         1 <0>         0.0673
     51 H22         5.2002  -10.4148   -0.6218 H         1 <0>         0.0731
@<TRIPOS>BOND
     1    1    2 1
     2    1   30 1
     3    1   31 1
     4    1   32 1
     5    2    3 1
     6    2   33 1
     7    2   34 1
     8    3    8 ar
     9    3    4 ar
    10    4    5 ar
    11    4   35 1
    12    5    6 ar
    13    5   36 1
    14    6    7 ar
    15    6   10 1
    16    7    8 ar
    17    7    9 1
    18    8   37 1
    19   10   11 1
    20   11   12 1
    21   11   38 1
    22   11   39 1
    23   12   13 2
    24   12   14 am
    25   14   15 1
    26   14   40 1
    27   15   16 2
    28   15   17 1
    29   17   18 1
    30   17   41 1
    31   18   19 am
    32   18   42 1
    33   19   20 2
    34   19   21 1
    35   21   22 1
    36   21   43 1
    37   21   44 1
    38   22   23 1
    39   23   28 ar
    40   23   24 ar
    41   24   25 ar
    42   24   45 1
    43   25   26 ar
    44   25   46 1
    45   26   27 ar
    46   26   47 1
    47   27   28 ar
    48   27   48 1
    49   28   29 1
    50   29   49 1
    51   29   50 1
    52   29   51 1
@<TRIPOS>MOLECULE
ZINC15223526
   61    64     0     0     0
SMALL
USER_CHARGES
[2-[(3-carbamoyl-4,5,6,7-tetrahydrobenzothiophen-2-yl)amino]-2-oxo-ethyl] (E)-3-(2-methoxyphenyl)-2-phenyl-prop-2-enoate
@<TRIPOS>ATOM
      1 C1         -1.4570    4.8763    1.3052 C.3       1 <0>         0.0252
      2 O1         -0.1433    4.5753    0.8302 O.3       1 <0>        -0.3115
      3 C2         -0.0244    3.5393   -0.0379 C.ar      1 <0>         0.1559
      4 C3         -1.1461    2.8244   -0.4267 C.ar      1 <0>        -0.2145
      5 C4         -1.0246    1.7728   -1.3144 C.ar      1 <0>        -0.0593
      6 C5          0.2174    1.4161   -1.8155 C.ar      1 <0>        -0.1590
      7 C6          1.3445    2.1136   -1.4419 C.ar      1 <0>        -0.0457
      8 C7          1.2368    3.1856   -0.5469 C.ar      1 <0>        -0.1186
      9 C8          2.4318    3.9333   -0.1435 C.2       1 <0>         0.0383
     10 C9          3.6016    3.2743    0.0890 C.2       1 <0>        -0.1366
     11 C10         3.6315    1.7935    0.0815 C.ar      1 <0>        -0.0394
     12 C11         2.9677    1.0747    1.0756 C.ar      1 <0>        -0.0946
     13 C12         2.9945   -0.3048    1.0599 C.ar      1 <0>        -0.1163
     14 C13         3.6879   -0.9748    0.0677 C.ar      1 <0>        -0.1129
     15 C14         4.3531   -0.2673   -0.9177 C.ar      1 <0>        -0.1149
     16 C15         4.3285    1.1123   -0.9164 C.ar      1 <0>        -0.0997
     17 C16         4.8326    4.0323    0.3470 C.2       1 <0>         0.5163
     18 O2          4.8080    5.2479    0.3532 O.2       1 <0>        -0.5051
     19 O3          5.9903    3.3801    0.5771 O.3       1 <0>        -0.3193
     20 C17         7.1673    4.1936    0.8246 C.3       1 <0>         0.0551
     21 C18         8.3566    3.2983    1.0589 C.2       1 <0>         0.5104
     22 O4          8.2252    2.0932    1.0210 O.2       1 <0>        -0.4681
     23 N1          9.5662    3.8367    1.3105 N.am      1 <0>        -0.6178
     24 C19        10.6606    3.0129    1.5261 C.2       1 <0>         0.0708
     25 C20        11.9736    3.3751    1.7914 C.2       1 <0>        -0.2241
     26 C21        12.9391    2.3067    1.9848 C.2       1 <0>        -0.0666
     27 C22        12.4428    1.0555    1.8712 C.2       1 <0>        -0.2060
     28 S1         10.7220    1.2813    1.5221 S.3       1 <0>         0.2342
     29 C23        13.1961   -0.2311    2.0120 C.3       1 <0>        -0.0366
     30 C24        14.6986    0.0772    1.9357 C.3       1 <0>        -0.1142
     31 C25        15.0083    1.2549    2.8644 C.3       1 <0>        -0.1198
     32 C26        14.4136    2.5414    2.2889 C.3       1 <0>        -0.0611
     33 C27        12.3709    4.7838    1.8780 C.2       1 <0>         0.5838
     34 O5         12.3288    5.3634    2.9474 O.2       1 <0>        -0.5324
     35 N2         12.7828    5.4369    0.7733 N.am      1 <0>        -0.8476
     36 H1         -2.1001    5.1260    0.4613 H         1 <0>         0.0589
     37 H2         -1.8623    4.0092    1.8267 H         1 <0>         0.0586
     38 H3         -1.4107    5.7232    1.9898 H         1 <0>         0.1040
     39 H4         -2.1175    3.0927   -0.0386 H         1 <0>         0.1328
     40 H5         -1.9032    1.2224   -1.6170 H         1 <0>         0.1283
     41 H6          0.3011    0.5899   -2.5059 H         1 <0>         0.1285
     42 H7          2.3096    1.8347   -1.8386 H         1 <0>         0.1376
     43 H8          2.3848    5.0064   -0.0305 H         1 <0>         0.1468
     44 H9          2.4301    1.5966    1.8534 H         1 <0>         0.1185
     45 H10         2.4769   -0.8626    1.8262 H         1 <0>         0.1220
     46 H11         3.7097   -2.0545    0.0622 H         1 <0>         0.1215
     47 H12         4.8923   -0.7959   -1.6898 H         1 <0>         0.1233
     48 H13         4.8481    1.6635   -1.6862 H         1 <0>         0.1203
     49 H14         7.3567    4.8308   -0.0392 H         1 <0>         0.1115
     50 H15         7.0011    4.8147    1.7048 H         1 <0>         0.1118
     51 H16         9.6713    4.8005    1.3408 H         1 <0>         0.4213
     52 H17        12.9637   -0.6895    2.9732 H         1 <0>         0.0834
     53 H18        12.9185   -0.9094    1.2052 H         1 <0>         0.0819
     54 H19        15.2675   -0.7971    2.2522 H         1 <0>         0.0743
     55 H20        14.9668    0.3364    0.9116 H         1 <0>         0.0683
     56 H21        14.5768    1.0644    3.8470 H         1 <0>         0.0678
     57 H22        16.0884    1.3672    2.9588 H         1 <0>         0.0706
     58 H23        14.5129    3.3471    3.0162 H         1 <0>         0.0753
     59 H24        14.9397    2.8093    1.3727 H         1 <0>         0.0769
     60 H25        12.8164    4.9750   -0.0790 H         1 <0>         0.4037
     61 H26        13.0457    6.3689    0.8306 H         1 <0>         0.4037
@<TRIPOS>BOND
     1    1    2 1
     2    1   36 1
     3    1   37 1
     4    1   38 1
     5    2    3 1
     6    3    8 ar
     7    3    4 ar
     8    4    5 ar
     9    4   39 1
    10    5    6 ar
    11    5   40 1
    12    6    7 ar
    13    6   41 1
    14    7    8 ar
    15    7   42 1
    16    8    9 1
    17    9   10 2
    18    9   43 1
    19   10   11 1
    20   10   17 1
    21   11   16 ar
    22   11   12 ar
    23   12   13 ar
    24   12   44 1
    25   13   14 ar
    26   13   45 1
    27   14   15 ar
    28   14   46 1
    29   15   16 ar
    30   15   47 1
    31   16   48 1
    32   17   18 2
    33   17   19 1
    34   19   20 1
    35   20   21 1
    36   20   49 1
    37   20   50 1
    38   21   22 2
    39   21   23 am
    40   23   24 1
    41   23   51 1
    42   24   28 1
    43   24   25 2
    44   25   26 1
    45   25   33 1
    46   26   32 1
    47   26   27 2
    48   27   28 1
    49   27   29 1
    50   29   30 1
    51   29   52 1
    52   29   53 1
    53   30   31 1
    54   30   54 1
    55   30   55 1
    56   31   32 1
    57   31   56 1
    58   31   57 1
    59   32   58 1
    60   32   59 1
    61   33   34 2
    62   33   35 am
    63   35   60 1
    64   35   61 1
@<TRIPOS>MOLECULE
ZINC14012371
   52    54     0     0     0
SMALL
USER_CHARGES
4-ethoxy-N-[[4-(phenylsulfamoyl)phenyl]carbamothioyl]benzamide
@<TRIPOS>ATOM
      1 C1         10.1872   15.1426    2.1541 C.3       1 <0>        -0.1569
      2 C2          9.7319   13.6973    1.9423 C.3       1 <0>         0.0497
      3 O1          8.5541   13.6826    1.1333 O.3       1 <0>        -0.3085
      4 C3          8.0170   12.4692    0.8491 C.ar      1 <0>         0.1658
      5 C4          6.8710   12.3846    0.0669 C.ar      1 <0>        -0.1567
      6 C5          6.3229   11.1554   -0.2239 C.ar      1 <0>        -0.0109
      7 C6          6.9204    9.9918    0.2686 C.ar      1 <0>        -0.1785
      8 C7          8.0694   10.0817    1.0596 C.ar      1 <0>        -0.0455
      9 C8          8.6147   11.3144    1.3405 C.ar      1 <0>        -0.2165
     10 C9          6.3366    8.6727   -0.0404 C.2       1 <0>         0.5405
     11 O2          5.3345    8.5967   -0.7243 O.2       1 <0>        -0.4051
     12 N1          6.9143    7.5519    0.4354 N.am      1 <0>        -0.6513
     13 C10         6.3809    6.3468    0.1531 C.2       1 <0>         0.5175
     14 S1          4.9696    6.2398   -0.8101 S.2       1 <0>        -0.4835
     15 N2          6.9586    5.2259    0.6289 N.pl3     1 <0>        -0.6424
     16 C11         6.4736    3.9716    0.2442 C.ar      1 <0>         0.1918
     17 C12         6.0977    3.7451   -1.0735 C.ar      1 <0>        -0.0983
     18 C13         5.6197    2.5054   -1.4502 C.ar      1 <0>        -0.0052
     19 C14         5.5154    1.4901   -0.5172 C.ar      1 <0>        -0.6736
     20 C15         5.8835    1.7141    0.7968 C.ar      1 <0>        -0.0092
     21 C16         6.3672    2.9500    1.1790 C.ar      1 <0>        -0.1461
     22 S2          4.9055   -0.0903   -1.0021 S.o2      1 <0>         2.6929
     23 O3          4.2179    0.0994   -2.2311 O.2       1 <0>        -0.9473
     24 O4          4.2788   -0.6525    0.1427 O.2       1 <0>        -0.9512
     25 N3          6.2197   -1.0406   -1.3368 N.pl3     1 <0>        -1.0705
     26 C17         7.0922   -0.6875   -2.3688 C.ar      1 <0>         0.1488
     27 C18         8.4657   -0.7426   -2.1686 C.ar      1 <0>        -0.1317
     28 C19         9.3256   -0.3924   -3.1909 C.ar      1 <0>        -0.1035
     29 C20         8.8207    0.0129   -4.4129 C.ar      1 <0>        -0.1295
     30 C21         7.4539    0.0689   -4.6156 C.ar      1 <0>        -0.0951
     31 C22         6.5884   -0.2799   -3.5975 C.ar      1 <0>        -0.1562
     32 H1         11.0939   15.1539    2.7769 H         1 <0>         0.0824
     33 H2          9.3894   15.7083    2.6576 H         1 <0>         0.0692
     34 H3         10.4056   15.6047    1.1800 H         1 <0>         0.0692
     35 H4         10.5297   13.1316    1.4388 H         1 <0>         0.0667
     36 H5          9.5135   13.2352    2.9163 H         1 <0>         0.0666
     37 H6          6.4097   13.2842   -0.3130 H         1 <0>         0.1434
     38 H7          5.4327   11.0905   -0.8320 H         1 <0>         0.1484
     39 H8          8.5313    9.1852    1.4460 H         1 <0>         0.1244
     40 H9          9.5053   11.3844    1.9473 H         1 <0>         0.1370
     41 H10         7.8212    7.6207    1.0542 H         1 <0>         0.4312
     42 H11         7.8116    5.2974    1.3198 H         1 <0>         0.4334
     43 H12         6.1796    4.5374   -1.8029 H         1 <0>         0.1510
     44 H13         5.3272    2.3285   -2.4747 H         1 <0>         0.1465
     45 H14         5.7967    0.9204    1.5241 H         1 <0>         0.1441
     46 H15         6.6587    3.1229    2.2044 H         1 <0>         0.1362
     47 H16         6.4056   -1.9499   -0.7464 H         1 <0>         0.4538
     48 H17         8.8607   -1.0588   -1.2144 H         1 <0>         0.1269
     49 H18        10.3936   -0.4347   -3.0358 H         1 <0>         0.1256
     50 H19         9.4953    0.2906   -5.2092 H         1 <0>         0.1245
     51 H20         7.0629    0.3862   -5.5710 H         1 <0>         0.1298
     52 H21         5.5211   -0.2363   -3.7566 H         1 <0>         0.1559
@<TRIPOS>BOND
     1    1    2 1
     2    1   32 1
     3    1   33 1
     4    1   34 1
     5    2    3 1
     6    2   35 1
     7    2   36 1
     8    3    4 1
     9    4    9 ar
    10    4    5 ar
    11    5    6 ar
    12    5   37 1
    13    6    7 ar
    14    6   38 1
    15    7    8 ar
    16    7   10 1
    17    8    9 ar
    18    8   39 1
    19    9   40 1
    20   10   11 2
    21   10   12 am
    22   12   13 1
    23   12   41 1
    24   13   14 2
    25   13   15 1
    26   15   16 1
    27   15   42 1
    28   16   21 ar
    29   16   17 ar
    30   17   18 ar
    31   17   43 1
    32   18   19 ar
    33   18   44 1
    34   19   20 ar
    35   19   22 1
    36   20   21 ar
    37   20   45 1
    38   21   46 1
    39   22   23 2
    40   22   24 2
    41   22   25 1
    42   25   26 1
    43   25   47 1
    44   26   31 ar
    45   26   27 ar
    46   27   28 ar
    47   27   48 1
    48   28   29 ar
    49   28   49 1
    50   29   30 ar
    51   29   50 1
    52   30   31 ar
    53   30   51 1
    54   31   52 1
@<TRIPOS>MOLECULE
ZINC14579798
   57    59     0     0     0
SMALL
USER_CHARGES

@<TRIPOS>ATOM
      1 C1         -0.2665    1.5307   -0.0692 C.3       1 <0>        -0.1512
      2 C2         -0.1014    0.0099   -0.0398 C.3       1 <0>        -0.1402
      3 C3          0.6059   -0.4510   -1.3158 C.3       1 <0>         0.1011
      4 N1          0.7640   -1.9072   -1.2877 N.am      1 <0>        -0.5265
      5 C4         -0.2832   -2.7393   -1.7369 C.2       1 <0>        -0.1402
      6 C5         -0.6622   -2.7360   -3.0637 C.2       1 <0>         0.4870
      7 N2         -1.6867   -3.5583   -3.4715 N.am      1 <0>        -0.5337
      8 C6         -2.3122   -4.3562   -2.5872 C.2       1 <0>         0.7138
      9 O1         -3.2159   -5.0756   -2.9674 O.2       1 <0>        -0.5312
     10 N3         -1.9562   -4.3731   -1.2904 N.am      1 <0>        -0.6587
     11 H1         -2.4227   -4.9577   -0.6727 H         1 <0>         0.4334
     12 C7         -0.9553   -3.5913   -0.8405 C.2       1 <0>         0.5681
     13 O2         -0.6372   -3.6179    0.3364 O.2       1 <0>        -0.5097
     14 C8         -2.0995   -3.5650   -4.8772 C.3       1 <0>         0.1489
     15 C9         -1.3041   -4.6006   -5.6294 C.ar      1 <0>        -0.1295
     16 C10        -0.1022   -4.2552   -6.2185 C.ar      1 <0>        -0.1027
     17 C11         0.6275   -5.2051   -6.9085 C.ar      1 <0>        -0.1198
     18 C12         0.1554   -6.5005   -7.0091 C.ar      1 <0>        -0.1034
     19 C13        -1.0460   -6.8461   -6.4192 C.ar      1 <0>        -0.1194
     20 C14        -1.7736   -5.8972   -5.7255 C.ar      1 <0>        -0.0857
     21 N4         -0.0240   -1.9203   -3.9671 N.pl3     1 <0>        -0.8327
     22 C15         1.9111   -2.4527   -0.8322 C.2       1 <0>         0.5381
     23 O3          2.0809   -3.6521   -0.8991 O.2       1 <0>        -0.4903
     24 C16         2.9812   -1.5720   -0.2404 C.3       1 <0>        -0.1301
     25 S1          4.3882   -2.5939    0.2760 S.3       1 <0>        -0.1629
     26 C17         5.5715   -1.3996    0.9570 C.3       1 <0>        -0.0679
     27 C18         6.8039   -2.1270    1.4293 C.ar      1 <0>        -0.0608
     28 C19         6.8745   -2.5958    2.7282 C.ar      1 <0>        -0.0954
     29 C20         8.0045   -3.2631    3.1622 C.ar      1 <0>        -0.1052
     30 C21         9.0649   -3.4617    2.2979 C.ar      1 <0>        -0.1047
     31 C22         8.9949   -2.9930    0.9983 C.ar      1 <0>        -0.0346
     32 C23         7.8609   -2.3303    0.5626 C.ar      1 <0>        -0.0923
     33 Cl1        10.3261   -3.2421   -0.0876 Cl        1 <0>        -0.0667
     34 H2          0.7146    2.0015   -0.1311 H         1 <0>         0.0562
     35 H3         -0.8614    1.8149   -0.9372 H         1 <0>         0.0556
     36 H4         -0.7704    1.8591    0.8399 H         1 <0>         0.0603
     37 H5          0.4935   -0.2743    0.8282 H         1 <0>         0.0682
     38 H6         -1.0825   -0.4610    0.0221 H         1 <0>         0.0696
     39 H7          0.0110   -0.1668   -2.1839 H         1 <0>         0.0777
     40 H8          1.5870    0.0198   -1.3778 H         1 <0>         0.0866
     41 H9         -3.1610   -3.8038   -4.9430 H         1 <0>         0.1224
     42 H10        -1.9205   -2.5821   -5.3131 H         1 <0>         0.1003
     43 H11         0.2666   -3.2432   -6.1400 H         1 <0>         0.1153
     44 H12         1.5661   -4.9352   -7.3694 H         1 <0>         0.1263
     45 H13         0.7251   -7.2425   -7.5488 H         1 <0>         0.1263
     46 H14        -1.4150   -7.8580   -6.4980 H         1 <0>         0.1275
     47 H15        -2.7105   -6.1680   -5.2615 H         1 <0>         0.1334
     48 H16         0.6520   -1.2948   -3.6625 H         1 <0>         0.4233
     49 H17        -0.2494   -1.9701   -4.9092 H         1 <0>         0.4063
     50 H18         3.3113   -0.8497   -0.9869 H         1 <0>         0.1094
     51 H19         2.5796   -1.0432    0.6241 H         1 <0>         0.1129
     52 H20         5.8473   -0.6809    0.1852 H         1 <0>         0.0929
     53 H21         5.1155   -0.8744    1.7962 H         1 <0>         0.0950
     54 H22         6.0466   -2.4402    3.4040 H         1 <0>         0.1326
     55 H23         8.0591   -3.6290    4.1768 H         1 <0>         0.1361
     56 H24         9.9481   -3.9825    2.6373 H         1 <0>         0.1354
     57 H25         7.8038   -1.9680   -0.4532 H         1 <0>         0.1353
@<TRIPOS>BOND
     1    1    2 1
     2    1   34 1
     3    1   35 1
     4    1   36 1
     5    2    3 1
     6    2   37 1
     7    2   38 1
     8    3    4 1
     9    3   39 1
    10    3   40 1
    11    4    5 1
    12    4   22 am
    13    5   12 1
    14    5    6 2
    15    6    7 1
    16    6   21 1
    17    7    8 am
    18    7   14 1
    19    8    9 2
    20    8   10 am
    21   10   11 1
    22   10   12 am
    23   12   13 2
    24   14   15 1
    25   14   41 1
    26   14   42 1
    27   15   20 ar
    28   15   16 ar
    29   16   17 ar
    30   16   43 1
    31   17   18 ar
    32   17   44 1
    33   18   19 ar
    34   18   45 1
    35   19   20 ar
    36   19   46 1
    37   20   47 1
    38   21   48 1
    39   21   49 1
    40   22   23 2
    41   22   24 1
    42   24   25 1
    43   24   50 1
    44   24   51 1
    45   25   26 1
    46   26   27 1
    47   26   52 1
    48   26   53 1
    49   27   32 ar
    50   27   28 ar
    51   28   29 ar
    52   28   54 1
    53   29   30 ar
    54   29   55 1
    55   30   31 ar
    56   30   56 1
    57   31   32 ar
    58   31   33 1
    59   32   57 1
@<TRIPOS>MOLECULE
ZINC09778631
   45    48     0     0     0
SMALL
USER_CHARGES
7-[2-[[5-(2-furylmethylamino)-1,3,4-thiadiazol-2-yl]sulfanyl]acetyl]amino-6-thiabicyclo[3.3.0]octa-7,9-diene-8-carboxamide
@<TRIPOS>ATOM
      1 C1         -4.8483    4.3908   -0.5817 C.2       1 <0>        -0.2194
      2 C2         -3.9747    3.3829   -1.0505 C.2       1 <0>        -0.1706
      3 C3         -3.4536    2.7830    0.0348 C.2       1 <0>        -0.0509
      4 O1         -3.9669    3.3670    1.1299 O.3       1 <0>        -0.1702
      5 C4         -4.8088    4.3466    0.7621 C.2       1 <0>        -0.0189
      6 C5         -2.4664    1.6445    0.0238 C.3       1 <0>         0.2177
      7 N1         -1.1029    2.1804    0.0194 N.pl3     1 <0>        -0.6681
      8 C6         -0.0158    1.3144    0.0093 C.2       1 <0>         0.3528
      9 N2          0.0021   -0.0041    0.0020 N.2       1 <0>        -0.3710
     10 N3          1.2044   -0.6726   -0.0131 N.2       1 <0>        -0.2739
     11 C7          2.3340    0.0088   -0.0202 C.2       1 <0>         0.0200
     12 S1          1.7305    1.6900   -0.0054 S.3       1 <0>         0.0125
     13 S2          3.9940   -0.5815   -0.0400 S.3       1 <0>         0.1359
     14 C8          3.8177   -2.3869   -0.0482 C.3       1 <0>        -0.1585
     15 C9          5.1828   -3.0249   -0.0653 C.2       1 <0>         0.5344
     16 O2          6.1769   -2.3301   -0.0715 O.2       1 <0>        -0.4816
     17 N4          5.2991   -4.3676   -0.0739 N.am      1 <0>        -0.6115
     18 C10         6.5552   -4.9547   -0.0897 C.2       1 <0>         0.0636
     19 C11         6.8755   -6.3014   -0.0946 C.2       1 <0>        -0.2087
     20 C12         8.2930   -6.6604   -0.1162 C.2       1 <0>        -0.0948
     21 C13         9.1456   -5.6200   -0.1194 C.2       1 <0>        -0.2303
     22 S3          8.1037   -4.1817   -0.1003 S.3       1 <0>         0.2711
     23 C14        10.5820   -6.0678   -0.1391 C.3       1 <0>        -0.0325
     24 C15        10.5228   -7.5456   -0.5849 C.3       1 <0>        -0.1165
     25 C16         9.1078   -7.9545   -0.1298 C.3       1 <0>        -0.0615
     26 C17         5.8312   -7.3307   -0.0827 C.2       1 <0>         0.5821
     27 O3          5.3853   -7.7573   -1.1318 O.2       1 <0>        -0.5320
     28 N5          5.3652   -7.8043    1.0898 N.am      1 <0>        -0.8471
     29 H1         -5.4346    5.0668   -1.1865 H         1 <0>         0.1538
     30 H2         -3.7654    3.1413   -2.0822 H         1 <0>         0.1535
     31 H3         -5.3640    4.9867    1.4317 H         1 <0>         0.2081
     32 H4         -2.6212    1.0379   -0.8685 H         1 <0>         0.1059
     33 H5         -2.6119    1.0288    0.9115 H         1 <0>         0.0919
     34 H6         -0.9589    3.1396    0.0235 H         1 <0>         0.4243
     35 H7          3.2799   -2.7035    0.8455 H         1 <0>         0.1369
     36 H8          3.2621   -2.6937   -0.9343 H         1 <0>         0.1373
     37 H9          4.5041   -4.9234   -0.0690 H         1 <0>         0.4237
     38 H10        11.1545   -5.4775   -0.8546 H         1 <0>         0.0807
     39 H11        11.0187   -5.9883    0.8564 H         1 <0>         0.0862
     40 H12        10.6245   -7.6310   -1.6668 H         1 <0>         0.0779
     41 H13        11.2829   -8.1376   -0.0752 H         1 <0>         0.0850
     42 H14         8.6755   -8.6649   -0.8346 H         1 <0>         0.0743
     43 H15         9.1438   -8.3895    0.8690 H         1 <0>         0.0808
     44 H16         5.7205   -7.4642    1.9259 H         1 <0>         0.4038
     45 H17         4.6743   -8.4851    1.0977 H         1 <0>         0.4040
@<TRIPOS>BOND
     1    1    5 2
     2    1    2 1
     3    1   29 1
     4    2    3 2
     5    2   30 1
     6    3    4 1
     7    3    6 1
     8    4    5 1
     9    5   31 1
    10    6    7 1
    11    6   32 1
    12    6   33 1
    13    7    8 1
    14    7   34 1
    15    8   12 1
    16    8    9 2
    17    9   10 1
    18   10   11 2
    19   11   12 1
    20   11   13 1
    21   13   14 1
    22   14   15 1
    23   14   35 1
    24   14   36 1
    25   15   16 2
    26   15   17 am
    27   17   18 1
    28   17   37 1
    29   18   22 1
    30   18   19 2
    31   19   20 1
    32   19   26 1
    33   20   25 1
    34   20   21 2
    35   21   22 1
    36   21   23 1
    37   23   24 1
    38   23   38 1
    39   23   39 1
    40   24   25 1
    41   24   40 1
    42   24   41 1
    43   25   42 1
    44   25   43 1
    45   26   27 2
    46   26   28 am
    47   28   44 1
    48   28   45 1
@<TRIPOS>MOLECULE
ZINC13985471
   55    56     0     0     0
SMALL
USER_CHARGES
N-[2-[N'-[[(E)-3-(4-methoxyphenyl)prop-2-enoyl]carbamothioyl]hydrazino]-2-oxo-ethyl]cyclohexanecarboxamide
@<TRIPOS>ATOM
      1 C1         -7.2807    5.3961    0.0661 C.3       1 <0>         0.0243
      2 O1         -7.3362    3.9682    0.0587 O.3       1 <0>        -0.3129
      3 C2         -6.1516    3.3055    0.0491 C.ar      1 <0>         0.1487
      4 C3         -6.1355    1.9154    0.0415 C.ar      1 <0>        -0.1560
      5 C4         -4.9369    1.2386    0.0322 C.ar      1 <0>        -0.0448
      6 C5         -3.7328    1.9525    0.0304 C.ar      1 <0>        -0.1287
      7 C6         -3.7545    3.3522    0.0439 C.ar      1 <0>        -0.0526
      8 C7         -4.9586    4.0194    0.0473 C.ar      1 <0>        -0.2147
      9 C8         -2.4501    1.2350    0.0204 C.2       1 <0>         0.0211
     10 C9         -1.2898    1.9262    0.0186 C.2       1 <0>        -0.2420
     11 C10        -0.0144    1.2128    0.0087 C.2       1 <0>         0.5274
     12 O2          0.0021   -0.0041    0.0020 O.2       1 <0>        -0.4119
     13 N1          1.1435    1.9025    0.0014 N.am      1 <0>        -0.6426
     14 C11         2.3196    1.2446   -0.0134 C.2       1 <0>         0.5162
     15 S1          2.3429   -0.4673   -0.0228 S.2       1 <0>        -0.4539
     16 N2          3.4775    1.9343   -0.0208 N.pl3     1 <0>        -0.4598
     17 N3          3.4585    3.3351   -0.0131 N.am      1 <0>        -0.5473
     18 C12         4.6164    4.0248   -0.0204 C.2       1 <0>         0.5174
     19 O3          5.6748    3.4328   -0.0337 O.2       1 <0>        -0.5122
     20 C13         4.5960    5.5316   -0.0121 C.3       1 <0>         0.1108
     21 N4          5.9704    6.0387   -0.0225 N.am      1 <0>        -0.7228
     22 C14         6.1987    7.3670   -0.0176 C.2       1 <0>         0.5241
     23 O4          5.2663    8.1425   -0.0045 O.2       1 <0>        -0.5340
     24 C15         7.6125    7.8886   -0.0283 C.3       1 <0>        -0.1036
     25 C16         8.3525    7.3818    1.2113 C.3       1 <0>        -0.1119
     26 C17         9.7879    7.9114    1.2004 C.3       1 <0>        -0.1188
     27 C18         9.7671    9.4412    1.2088 C.3       1 <0>        -0.1236
     28 C19         9.0271    9.9480   -0.0307 C.3       1 <0>        -0.1210
     29 C20         7.5917    9.4185   -0.0198 C.3       1 <0>        -0.0996
     30 H1         -6.7487    5.7344    0.9553 H         1 <0>         0.0586
     31 H2         -6.7578    5.7440   -0.8247 H         1 <0>         0.0586
     32 H3         -8.2935    5.7990    0.0735 H         1 <0>         0.1041
     33 H4         -7.0651    1.3655    0.0426 H         1 <0>         0.1380
     34 H5         -4.9255    0.1586    0.0267 H         1 <0>         0.1395
     35 H6         -2.8283    3.9076    0.0470 H         1 <0>         0.1306
     36 H7         -4.9765    5.0992    0.0536 H         1 <0>         0.1336
     37 H8         -2.4355    0.1552    0.0144 H         1 <0>         0.1415
     38 H9         -1.3044    3.0061    0.0246 H         1 <0>         0.1313
     39 H10         1.1303    2.8724    0.0067 H         1 <0>         0.4031
     40 H11         4.3240    1.4607   -0.0314 H         1 <0>         0.4577
     41 H12         2.6120    3.8086   -0.0024 H         1 <0>         0.4229
     42 H13         4.0688    5.8927   -0.8952 H         1 <0>         0.1099
     43 H14         4.0858    5.8832    0.8847 H         1 <0>         0.1098
     44 H15         6.7161    5.4185   -0.0330 H         1 <0>         0.4146
     45 H16         8.1227    7.5371   -0.9251 H         1 <0>         0.1009
     46 H17         7.8423    7.7333    2.1081 H         1 <0>         0.0693
     47 H18         8.3673    6.2919    1.2053 H         1 <0>         0.0678
     48 H19        10.2981    7.5599    0.3036 H         1 <0>         0.0657
     49 H20        10.3151    7.5503    2.0835 H         1 <0>         0.0676
     50 H21        10.7897    9.8185    1.2011 H         1 <0>         0.0644
     51 H22         9.2569    9.7927    2.1056 H         1 <0>         0.0633
     52 H23         9.5373    9.5965   -0.9275 H         1 <0>         0.0635
     53 H24         9.0123   11.0379   -0.0247 H         1 <0>         0.0673
     54 H25         7.0646    9.7795   -0.9029 H         1 <0>         0.0702
     55 H26         7.0816    9.7700    0.8769 H         1 <0>         0.0708
@<TRIPOS>BOND
     1    1    2 1
     2    1   30 1
     3    1   31 1
     4    1   32 1
     5    2    3 1
     6    3    8 ar
     7    3    4 ar
     8    4    5 ar
     9    4   33 1
    10    5    6 ar
    11    5   34 1
    12    6    7 ar
    13    6    9 1
    14    7    8 ar
    15    7   35 1
    16    8   36 1
    17    9   10 2
    18    9   37 1
    19   10   11 1
    20   10   38 1
    21   11   12 2
    22   11   13 am
    23   13   14 1
    24   13   39 1
    25   14   15 2
    26   14   16 1
    27   16   17 1
    28   16   40 1
    29   17   18 am
    30   17   41 1
    31   18   19 2
    32   18   20 1
    33   20   21 1
    34   20   42 1
    35   20   43 1
    36   21   22 am
    37   21   44 1
    38   22   23 2
    39   22   24 1
    40   24   29 1
    41   24   25 1
    42   24   45 1
    43   25   26 1
    44   25   46 1
    45   25   47 1
    46   26   27 1
    47   26   48 1
    48   26   49 1
    49   27   28 1
    50   27   50 1
    51   27   51 1
    52   28   29 1
    53   28   52 1
    54   28   53 1
    55   29   54 1
    56   29   55 1
@<TRIPOS>MOLECULE
ZINC22533568
   47    48     0     0     0
SMALL
USER_CHARGES
2-[[5-(2-amino-2-oxo-ethyl)sulfanyl-1,3,4-thiadiazol-2-yl]sulfanyl]-N-[2-(1-cyclohexenyl)ethylcarbamoyl]acetamide
@<TRIPOS>ATOM
      1 C1         -0.7392    1.5847    1.2635 C.3       1 <0>        -0.1224
      2 C2         -0.0127    1.0858    0.0080 C.3       1 <0>        -0.1217
      3 C3         -0.7612    1.5969   -1.2250 C.3       1 <0>        -0.0831
      4 C4         -1.0204    3.0696   -1.0987 C.2       1 <0>        -0.1223
      5 C5         -0.9522    3.7251    0.0154 C.2       1 <0>        -0.1464
      6 C6         -0.5951    3.1057    1.3349 C.3       1 <0>        -0.0960
      7 C7         -1.3821    3.8330   -2.3467 C.3       1 <0>        -0.0965
      8 C8         -0.1043    4.2510   -3.0771 C.3       1 <0>         0.1426
      9 N1         -0.4559    4.9931   -4.2903 N.am      1 <0>        -0.7472
     10 C9          0.5153    5.4637   -5.0977 C.2       1 <0>         0.6970
     11 O1          1.6827    5.2724   -4.8192 O.2       1 <0>        -0.5306
     12 N2          0.1918    6.1464   -6.2138 N.am      1 <0>        -0.6987
     13 C10         1.1630    6.6170   -7.0211 C.2       1 <0>         0.5434
     14 O2          2.3275    6.4262   -6.7434 O.2       1 <0>        -0.4521
     15 C11         0.8013    7.3804   -8.2691 C.3       1 <0>        -0.1652
     16 S1          2.3162    7.8760   -9.1352 S.3       1 <0>         0.1452
     17 C12         1.7322    8.7459  -10.5518 C.2       1 <0>         0.0337
     18 N3          0.4924    8.9973  -10.9261 N.2       1 <0>        -0.3048
     19 N4          0.2565    9.7034  -12.0829 N.2       1 <0>        -0.3061
     20 C13         1.2713   10.1258  -12.8124 C.2       1 <0>         0.0357
     21 S2          2.6607    9.5301  -11.8609 S.3       1 <0>         0.0832
     22 S3          1.2594   11.0400  -14.3187 S.3       1 <0>         0.1411
     23 C14        -0.5034   11.2865  -14.6685 C.3       1 <0>        -0.1662
     24 C15        -0.6572   12.0663  -15.9489 C.2       1 <0>         0.5406
     25 O3          0.3256   12.4209  -16.5647 O.2       1 <0>        -0.5338
     26 N5         -1.8869   12.3697  -16.4095 N.am      1 <0>        -0.8679
     27 H1         -0.2926    1.1316    2.1608 H         1 <0>         0.0653
     28 H2         -1.8054    1.3195    1.2108 H         1 <0>         0.0638
     29 H3          1.0187    1.4681    0.0050 H         1 <0>         0.0655
     30 H4          0.0039   -0.0141    0.0067 H         1 <0>         0.0663
     31 H5         -0.1548    1.4134   -2.1242 H         1 <0>         0.0724
     32 H6         -1.7216    1.0683   -1.3162 H         1 <0>         0.0739
     33 H7         -1.1629    4.8046    0.0322 H         1 <0>         0.1052
     34 H8         -1.2667    3.5016    2.1109 H         1 <0>         0.0718
     35 H9          0.4448    3.3643    1.5833 H         1 <0>         0.0747
     36 H10        -1.9883    3.1933   -3.0050 H         1 <0>         0.0770
     37 H11        -1.9586    4.7293   -2.0741 H         1 <0>         0.0755
     38 H12         0.5018    4.8906   -2.4187 H         1 <0>         0.0691
     39 H13         0.4722    3.3547   -3.3496 H         1 <0>         0.0696
     40 H14        -1.5126    5.1662   -4.5423 H         1 <0>         0.4186
     41 H15        -0.8649    6.3195   -6.4658 H         1 <0>         0.4373
     42 H16         0.1951    6.7408   -8.9274 H         1 <0>         0.1368
     43 H17         0.2248    8.2767   -7.9965 H         1 <0>         0.1368
     44 H18        -0.9967   10.3089  -14.7731 H         1 <0>         0.1298
     45 H19        -0.9668   11.8444  -13.8415 H         1 <0>         0.1298
     46 H20        -1.9992   12.9389  -17.3441 H         1 <0>         0.4332
     47 H21        -2.7783   12.0482  -15.8509 H         1 <0>         0.4261
@<TRIPOS>BOND
     1    1    6 1
     2    1    2 1
     3    1   27 1
     4    1   28 1
     5    2    3 1
     6    2   29 1
     7    2   30 1
     8    3    4 1
     9    3   31 1
    10    3   32 1
    11    4    5 2
    12    4    7 1
    13    5    6 1
    14    5   33 1
    15    6   34 1
    16    6   35 1
    17    7    8 1
    18    7   36 1
    19    7   37 1
    20    8    9 1
    21    8   38 1
    22    8   39 1
    23    9   10 am
    24    9   40 1
    25   10   11 2
    26   10   12 am
    27   12   13 am
    28   12   41 1
    29   13   14 2
    30   13   15 1
    31   15   16 1
    32   15   42 1
    33   15   43 1
    34   16   17 1
    35   17   21 1
    36   17   18 2
    37   18   19 1
    38   19   20 2
    39   20   21 1
    40   20   22 1
    41   22   23 1
    42   23   24 1
    43   23   44 1
    44   23   45 1
    45   24   25 2
    46   24   26 am
    47   26   46 1
    48   26   47 1
@<TRIPOS>MOLECULE
ZINC36594217
   63    64     0     0     0
SMALL
USER_CHARGES

@<TRIPOS>ATOM
      1 C1         -1.4701   -4.0772   -2.2069 C.3       1 <0>        -0.1370
      2 C2         -0.3730   -3.6791   -1.2177 C.3       1 <0>        -0.1574
      3 C3          0.2296   -2.3635   -1.6385 C.2       1 <0>         0.5128
      4 O1         -0.2367   -1.7561   -2.5791 O.2       1 <0>        -0.5179
      5 N1          1.2867   -1.8617   -0.9697 N.am      1 <0>        -0.5856
      6 C4          1.8446   -2.5912    0.1718 C.3       1 <0>         0.1876
      7 H1          2.3518   -3.4883   -0.1832 H         1 <0>         0.1122
      8 C5          0.7324   -2.9812    1.1109 C.ar      1 <0>        -0.1753
      9 C6         -0.2813   -2.0794    1.3975 C.ar      1 <0>         0.1658
     10 C7         -1.3047   -2.4383    2.2617 C.ar      1 <0>        -0.1792
     11 C8         -1.3147   -3.6992    2.8389 C.ar      1 <0>         0.1571
     12 C9         -0.3015   -4.6013    2.5515 C.ar      1 <0>        -0.1806
     13 C10         0.7197   -4.2439    1.6840 C.ar      1 <0>         0.1494
     14 O2          1.7101   -5.1296    1.3987 O.3       1 <0>        -0.4861
     15 O3         -2.3172   -4.0506    3.6865 O.3       1 <0>        -0.4917
     16 O4         -0.2715   -0.8438    0.8319 O.3       1 <0>        -0.4611
     17 C11         2.8295   -1.7111    0.8975 C.2       1 <0>         0.5149
     18 O5          2.7156   -0.5047    0.8482 O.2       1 <0>        -0.4652
     19 N2          3.8368   -2.2648    1.6012 N.am      1 <0>        -0.7073
     20 C12         4.7942   -1.4093    2.3067 C.3       1 <0>        -0.3622
     21 S1          4.2726   -1.2139    4.0331 S.o2      1 <0>         2.4683
     22 O6          5.2251   -0.4380    4.7473 O.2       1 <0>        -0.9300
     23 O7          2.8887   -0.8973    4.0935 O.2       1 <0>        -0.9120
     24 C13         4.3953   -2.8282    4.7287 C.ar      1 <0>        -0.6652
     25 C14         3.3125   -3.6860    4.6795 C.ar      1 <0>        -0.0232
     26 C15         3.4087   -4.9525    5.2252 C.ar      1 <0>        -0.1410
     27 C16         4.5879   -5.3612    5.8196 C.ar      1 <0>        -0.0250
     28 C17         5.6710   -4.5036    5.8680 C.ar      1 <0>        -0.1383
     29 C18         5.5762   -3.2387    5.3185 C.ar      1 <0>        -0.0187
     30 C19         4.6925   -6.7415    6.4154 C.3       1 <0>        -0.1281
     31 C20         1.8778   -0.5870   -1.3841 C.3       1 <0>         0.1751
     32 C21         1.4292   -0.2561   -2.8089 C.3       1 <0>        -0.1549
     33 C22         1.4180    0.5210   -0.4344 C.3       1 <0>        -0.1548
     34 C23         3.4034   -0.6945   -1.3417 C.3       1 <0>        -0.1886
     35 H2         -2.2445   -3.3101   -2.2187 H         1 <0>         0.0620
     36 H3         -1.0416   -4.1763   -3.2042 H         1 <0>         0.0611
     37 H4         -1.9060   -5.0288   -1.9025 H         1 <0>         0.0606
     38 H5         -0.8015   -3.5800   -0.2203 H         1 <0>         0.0955
     39 H6          0.4014   -4.4461   -1.2058 H         1 <0>         0.0931
     40 H7         -2.0938   -1.7357    2.4855 H         1 <0>         0.1448
     41 H8         -0.3090   -5.5832    3.0014 H         1 <0>         0.1448
     42 H9          2.4665   -5.0807    1.9992 H         1 <0>         0.3902
     43 H10        -3.0760   -4.4609    3.2495 H         1 <0>         0.3991
     44 H11        -0.8082   -0.7738    0.0306 H         1 <0>         0.3888
     45 H12         3.9278   -3.2297    1.6406 H         1 <0>         0.4077
     46 H13         5.7827   -1.8675    2.2755 H         1 <0>         0.1486
     47 H14         4.8313   -0.4319    1.8256 H         1 <0>         0.1589
     48 H15         2.3912   -3.3667    4.2151 H         1 <0>         0.1368
     49 H16         2.5625   -5.6225    5.1874 H         1 <0>         0.1342
     50 H17         6.5922   -4.8228    6.3327 H         1 <0>         0.1347
     51 H18         6.4236   -2.5700    5.3530 H         1 <0>         0.1424
     52 H19         5.0464   -7.4390    5.6563 H         1 <0>         0.0815
     53 H20         5.3943   -6.7251    7.2492 H         1 <0>         0.0742
     54 H21         3.7124   -7.0587    6.7716 H         1 <0>         0.0743
     55 H22         0.3423   -0.1795   -2.8391 H         1 <0>         0.1066
     56 H23         1.8690    0.6924   -3.1173 H         1 <0>         0.0450
     57 H24         1.7567   -1.0454   -3.4855 H         1 <0>         0.0470
     58 H25         1.1427    0.0853    0.5260 H         1 <0>         0.1347
     59 H26         2.2285    1.2355   -0.2903 H         1 <0>         0.0549
     60 H27         0.5554    1.0316   -0.8624 H         1 <0>         0.0252
     61 H28         3.7404   -1.3864   -2.1136 H         1 <0>         0.0434
     62 H29         3.8419    0.2878   -1.5177 H         1 <0>         0.0683
     63 H30         3.7147   -1.0614   -0.3637 H         1 <0>         0.0849
@<TRIPOS>BOND
     1    1    2 1
     2    1   35 1
     3    1   36 1
     4    1   37 1
     5    2    3 1
     6    2   38 1
     7    2   39 1
     8    3    4 2
     9    3    5 am
    10    5    6 1
    11    5   31 1
    12    6    7 1
    13    6    8 1
    14    6   17 1
    15    8   13 ar
    16    8    9 ar
    17    9   10 ar
    18    9   16 1
    19   10   11 ar
    20   10   40 1
    21   11   12 ar
    22   11   15 1
    23   12   13 ar
    24   12   41 1
    25   13   14 1
    26   14   42 1
    27   15   43 1
    28   16   44 1
    29   17   18 2
    30   17   19 am
    31   19   20 1
    32   19   45 1
    33   20   21 1
    34   20   46 1
    35   20   47 1
    36   21   22 2
    37   21   23 2
    38   21   24 1
    39   24   29 ar
    40   24   25 ar
    41   25   26 ar
    42   25   48 1
    43   26   27 ar
    44   26   49 1
    45   27   28 ar
    46   27   30 1
    47   28   29 ar
    48   28   50 1
    49   29   51 1
    50   30   52 1
    51   30   53 1
    52   30   54 1
    53   31   32 1
    54   31   33 1
    55   31   34 1
    56   32   55 1
    57   32   56 1
    58   32   57 1
    59   33   58 1
    60   33   59 1
    61   33   60 1
    62   34   61 1
    63   34   62 1
    64   34   63 1
@<TRIPOS>MOLECULE
ZINC59114956
   46    49     0     0     0
SMALL
USER_CHARGES

@<TRIPOS>ATOM
      1 C1         -0.0167    1.3781    0.0096 C.ar      1 <0>        -0.0824
      2 C2          1.1694    2.0886    0.0021 C.ar      1 <0>        -0.1020
      3 C3          2.3803    1.4160   -0.0131 C.ar      1 <0>         0.0502
      4 C4          2.3992    0.0233   -0.0208 C.ar      1 <0>         0.0315
      5 C5          1.2069   -0.6820   -0.0135 C.ar      1 <0>        -0.0777
      6 C6          0.0021   -0.0041    0.0020 C.ar      1 <0>        -0.1172
      7 C7         -1.2936   -0.7736    0.0103 C.3       1 <0>         0.1703
      8 N1         -1.7267   -1.0156   -1.3681 N.pl3     1 <0>        -0.6735
      9 C8         -2.8683   -1.6909   -1.6071 C.2       1 <0>         0.5596
     10 S1         -3.8123   -2.2660   -0.2998 S.2       1 <0>        -0.5640
     11 N2         -3.2667   -1.9135   -2.8752 N.pl3     1 <0>        -0.5021
     12 N3         -2.4942   -1.4429   -3.9451 N.pl3     1 <0>        -0.5019
     13 C9         -2.8927   -1.6655   -5.2132 C.2       1 <0>         0.5601
     14 S2         -1.9486   -1.0904   -6.5205 S.2       1 <0>        -0.5658
     15 N4         -4.0343   -2.3408   -5.4522 N.pl3     1 <0>        -0.6733
     16 C10        -4.4674   -2.5828   -6.8306 C.3       1 <0>         0.1704
     17 C11        -5.7630   -3.3523   -6.8223 C.ar      1 <0>        -0.1175
     18 C12        -5.7442   -4.7345   -6.8241 C.ar      1 <0>        -0.0823
     19 C13        -6.9303   -5.4450   -6.8165 C.ar      1 <0>        -0.1021
     20 C14        -8.1412   -4.7724   -6.8066 C.ar      1 <0>         0.0504
     21 C15        -8.1602   -3.3796   -6.8043 C.ar      1 <0>         0.0316
     22 C16        -6.9679   -2.6744   -6.8071 C.ar      1 <0>        -0.0778
     23 O1         -9.4594   -2.9611   -6.7947 O.3       1 <0>        -0.3057
     24 C17       -10.2345   -4.1038   -7.2032 C.3       1 <0>         0.2124
     25 O2         -9.4286   -5.2262   -6.7982 O.3       1 <0>        -0.3055
     26 O3          3.6984   -0.3953   -0.0361 O.3       1 <0>        -0.3056
     27 C18         4.4665    0.7502   -0.4497 C.3       1 <0>         0.2122
     28 O4          3.6676    1.8698   -0.0234 O.3       1 <0>        -0.3054
     29 H1         -0.9598    1.9041    0.0260 H         1 <0>         0.1435
     30 H2          1.1518    3.1684    0.0078 H         1 <0>         0.1421
     31 H3          1.2186   -1.7619   -0.0194 H         1 <0>         0.1399
     32 H4         -1.1466   -1.7271    0.5176 H         1 <0>         0.1057
     33 H5         -2.0555   -0.1967    0.5346 H         1 <0>         0.1081
     34 H6         -1.1918   -0.6897   -2.1088 H         1 <0>         0.3958
     35 H7         -4.0884   -2.3996   -3.0472 H         1 <0>         0.4462
     36 H8         -1.6726   -0.9568   -3.7731 H         1 <0>         0.4459
     37 H9         -4.5691   -2.6667   -4.7115 H         1 <0>         0.3962
     38 H10        -4.6143   -1.6293   -7.3379 H         1 <0>         0.1055
     39 H11        -3.7055   -3.1596   -7.3549 H         1 <0>         0.1080
     40 H12        -4.8010   -5.2606   -6.8319 H         1 <0>         0.1434
     41 H13        -6.9126   -6.5248   -6.8187 H         1 <0>         0.1421
     42 H14        -6.9796   -1.5945   -6.8012 H         1 <0>         0.1399
     43 H15       -11.1960   -4.1177   -6.6900 H         1 <0>         0.1363
     44 H16       -10.3760   -4.1040   -8.2840 H         1 <0>         0.0893
     45 H17         5.4365    0.7606    0.0473 H         1 <0>         0.1362
     46 H18         4.5897    0.7580   -1.5327 H         1 <0>         0.0891
@<TRIPOS>BOND
     1    1    6 ar
     2    1    2 ar
     3    1   29 1
     4    2    3 ar
     5    2   30 1
     6    3   28 1
     7    3    4 ar
     8    4    5 ar
     9    4   26 1
    10    5    6 ar
    11    5   31 1
    12    6    7 1
    13    7    8 1
    14    7   32 1
    15    7   33 1
    16    8    9 1
    17    8   34 1
    18    9   10 2
    19    9   11 1
    20   11   12 1
    21   11   35 1
    22   12   13 1
    23   12   36 1
    24   13   14 2
    25   13   15 1
    26   15   16 1
    27   15   37 1
    28   16   17 1
    29   16   38 1
    30   16   39 1
    31   17   22 ar
    32   17   18 ar
    33   18   19 ar
    34   18   40 1
    35   19   20 ar
    36   19   41 1
    37   20   25 1
    38   20   21 ar
    39   21   22 ar
    40   21   23 1
    41   22   42 1
    42   23   24 1
    43   24   25 1
    44   24   43 1
    45   24   44 1
    46   26   27 1
    47   27   28 1
    48   27   45 1
    49   27   46 1
@<TRIPOS>MOLECULE
ZINC09613385
   46    48     0     0     0
SMALL
USER_CHARGES
(3-sulfamoylphenyl)carbamoylmethyl 2-(4-oxo-2-thia-5-azabicyclo[4.4.0]deca-7,9,11-trien-3-yl)acetate
@<TRIPOS>ATOM
      1 C1         -9.0259    3.0634   -4.2345 C.ar      1 <0>        -0.0797
      2 C2         -8.2482    1.9935   -4.6385 C.ar      1 <0>        -0.1249
      3 C3         -7.7680    1.0982   -3.7004 C.ar      1 <0>        -0.0564
      4 C4         -8.0634    1.2784   -2.3593 C.ar      1 <0>        -0.1457
      5 C5         -8.8291    2.3675   -1.9415 C.ar      1 <0>         0.1565
      6 C6         -9.3200    3.2494   -2.8984 C.ar      1 <0>        -0.1386
      7 N1         -9.1333    2.5777   -0.6000 N.am      1 <0>        -0.6515
      8 C7         -8.5308    2.0251    0.4476 C.2       1 <0>         0.5309
      9 O1         -8.9865    2.2342    1.5521 O.2       1 <0>        -0.5013
     10 C8         -7.3092    1.1509    0.3298 C.3       1 <0>        -0.0894
     11 H1         -7.2278    0.5134    1.2101 H         1 <0>         0.1631
     12 S1         -7.4812    0.1208   -1.1597 S.3       1 <0>        -0.0478
     13 C9         -6.0595    2.0254    0.2098 C.3       1 <0>        -0.1032
     14 C10        -4.8321    1.1511    0.2158 C.2       1 <0>         0.4739
     15 O2         -4.9452   -0.0484    0.3067 O.2       1 <0>        -0.4839
     16 O3         -3.6131    1.7049    0.1202 O.3       1 <0>        -0.3296
     17 C11        -2.4761    0.8020    0.1324 C.3       1 <0>         0.0513
     18 C12        -1.2015    1.5977    0.0169 C.2       1 <0>         0.5174
     19 O4         -1.2469    2.8068   -0.0674 O.2       1 <0>        -0.4935
     20 N2         -0.0111    0.9658    0.0074 N.am      1 <0>        -0.6697
     21 C13         1.1749    1.7081   -0.0077 C.ar      1 <0>         0.1245
     22 C14         1.2375    2.9059   -0.7081 C.ar      1 <0>        -0.0611
     23 C15         2.4079    3.6387   -0.7166 C.ar      1 <0>        -0.1193
     24 C16         3.5203    3.1758   -0.0377 C.ar      1 <0>        -0.0268
     25 C17         3.4629    1.9813    0.6562 C.ar      1 <0>        -0.6588
     26 C18         2.2936    1.2461    0.6729 C.ar      1 <0>        -0.0459
     27 S2          4.8829    1.3959    1.5195 S.o2      1 <0>         2.7035
     28 O5          5.6852    2.5345    1.8008 O.2       1 <0>        -0.9587
     29 O6          4.4088    0.5273    2.5393 O.2       1 <0>        -0.9587
     30 N3          5.7464    0.4580    0.4626 N.pl3     1 <0>        -1.2472
     31 H2         -9.4060    3.7579   -4.9691 H         1 <0>         0.1351
     32 H3         -8.0166    1.8574   -5.6845 H         1 <0>         0.1354
     33 H4         -7.1630    0.2600   -4.0130 H         1 <0>         0.1374
     34 H5         -9.9342    4.0842   -2.5946 H         1 <0>         0.1347
     35 H6         -9.8605    3.1908   -0.4099 H         1 <0>         0.4166
     36 H7         -6.0175    2.7165    1.0517 H         1 <0>         0.1290
     37 H8         -6.0990    2.5898   -0.7219 H         1 <0>         0.1172
     38 H9         -2.5510    0.1120   -0.7080 H         1 <0>         0.1114
     39 H10        -2.4694    0.2387    1.0656 H         1 <0>         0.1113
     40 H11         0.0234   -0.0036    0.0068 H         1 <0>         0.4177
     41 H12         0.3706    3.2655   -1.2425 H         1 <0>         0.1490
     42 H13         2.4559    4.5722   -1.2577 H         1 <0>         0.1412
     43 H14         4.4359    3.7484   -0.0499 H         1 <0>         0.1465
     44 H15         2.2493    0.3131    1.2151 H         1 <0>         0.1478
     45 H16         6.7109    0.3963    0.5454 H         1 <0>         0.4230
     46 H17         5.2877   -0.0297   -0.2393 H         1 <0>         0.4172
@<TRIPOS>BOND
     1    1    6 ar
     2    1    2 ar
     3    1   31 1
     4    2    3 ar
     5    2   32 1
     6    3    4 ar
     7    3   33 1
     8    4   12 1
     9    4    5 ar
    10    5    6 ar
    11    5    7 1
    12    6   34 1
    13    7    8 am
    14    7   35 1
    15    8    9 2
    16    8   10 1
    17   10   11 1
    18   10   12 1
    19   10   13 1
    20   13   14 1
    21   13   36 1
    22   13   37 1
    23   14   15 2
    24   14   16 1
    25   16   17 1
    26   17   18 1
    27   17   38 1
    28   17   39 1
    29   18   19 2
    30   18   20 am
    31   20   21 1
    32   20   40 1
    33   21   26 ar
    34   21   22 ar
    35   22   23 ar
    36   22   41 1
    37   23   24 ar
    38   23   42 1
    39   24   25 ar
    40   24   43 1
    41   25   26 ar
    42   25   27 1
    43   26   44 1
    44   27   28 2
    45   27   29 2
    46   27   30 1
    47   30   45 1
    48   30   46 1
@<TRIPOS>MOLECULE
ZINC15899218
   50    51     0     0     0
SMALL
USER_CHARGES
1-[4-[(4-fluorophenyl)sulfonylamino]butanoylamino]-3-[[(2S)-tetrahydrofuran-2-yl]methyl]thiourea
@<TRIPOS>ATOM
      1 C1         -2.2389    2.7516   -3.7990 C.ar      1 <0>        -0.1746
      2 C2         -2.1481    2.0595   -2.6062 C.ar      1 <0>         0.0124
      3 C3         -1.5709    2.6577   -1.5016 C.ar      1 <0>        -0.6944
      4 C4         -1.0887    3.9505   -1.5872 C.ar      1 <0>         0.0073
      5 C5         -1.1737    4.6427   -2.7803 C.ar      1 <0>        -0.1751
      6 C6         -1.7516    4.0446   -3.8874 C.ar      1 <0>         0.1586
      7 F1         -1.8395    4.7220   -5.0530 F         1 <0>        -0.1273
      8 S1         -1.4563    1.7742    0.0186 S.o2      1 <0>         2.6987
      9 O1         -2.4755    0.7845   -0.0090 O.2       1 <0>        -0.9516
     10 O2         -1.3685    2.7488    1.0490 O.2       1 <0>        -0.9507
     11 N1         -0.0111    0.9658    0.0074 N.pl3     1 <0>        -1.1156
     12 C7          1.2475    1.7155   -0.0006 C.3       1 <0>         0.1135
     13 C8          2.4022    0.7774    0.3567 C.3       1 <0>        -0.1144
     14 C9          3.7167    1.5604    0.3483 C.3       1 <0>        -0.1303
     15 C10         4.8540    0.6364    0.7003 C.2       1 <0>         0.5198
     16 O3          4.6348   -0.5332    0.9347 O.2       1 <0>        -0.5159
     17 N2          6.1147    1.1098    0.7545 N.am      1 <0>        -0.5511
     18 N3          7.1720    0.2508    1.0817 N.pl3     1 <0>        -0.4723
     19 C11         8.4327    0.7242    1.1359 C.2       1 <0>         0.5603
     20 S2          9.7247   -0.3255    1.5357 S.2       1 <0>        -0.5897
     21 N4          8.6763    2.0239    0.8754 N.pl3     1 <0>        -0.6795
     22 C12        10.0467    2.5384    0.9344 C.3       1 <0>         0.1301
     23 C13        10.0458    4.0313    0.5995 C.3       1 <0>         0.0575
     24 H1          9.5319    4.2071   -0.3455 H         1 <0>         0.0767
     25 C14        11.4927    4.5684    0.5328 C.3       1 <0>        -0.1458
     26 C15        11.3955    5.9857    1.1403 C.3       1 <0>        -0.1560
     27 C16         9.9013    6.1373    1.5022 C.3       1 <0>         0.0443
     28 O4          9.4212    4.7845    1.6617 O.3       1 <0>        -0.3716
     29 H2         -2.6896    2.2840   -4.6619 H         1 <0>         0.1483
     30 H3         -2.5278    1.0509   -2.5372 H         1 <0>         0.1523
     31 H4         -0.6417    4.4182   -0.7225 H         1 <0>         0.1518
     32 H5         -0.7932    5.6511   -2.8481 H         1 <0>         0.1480
     33 H6          0.0021   -0.0041    0.0020 H         1 <0>         0.4231
     34 H7          1.4141    2.1353   -0.9927 H         1 <0>         0.0690
     35 H8          1.1948    2.5218    0.7309 H         1 <0>         0.0856
     36 H9          2.2356    0.3577    1.3487 H         1 <0>         0.0871
     37 H10         2.4549   -0.0289   -0.3749 H         1 <0>         0.0846
     38 H11         3.8832    1.9802   -0.6437 H         1 <0>         0.1076
     39 H12         3.6639    2.3667    1.0799 H         1 <0>         0.1098
     40 H13         6.2900    2.0452    0.5670 H         1 <0>         0.4207
     41 H14         6.9967   -0.6846    1.2692 H         1 <0>         0.4594
     42 H15         7.9443    2.6186    0.6489 H         1 <0>         0.3938
     43 H16        10.4472    2.3914    1.9374 H         1 <0>         0.1015
     44 H17        10.6665    2.0048    0.2139 H         1 <0>         0.1062
     45 H18        12.1598    3.9434    1.1264 H         1 <0>         0.0861
     46 H19        11.8342    4.6186   -0.5011 H         1 <0>         0.0844
     47 H20        12.0145    6.0614    2.0342 H         1 <0>         0.0799
     48 H21        11.6912    6.7365    0.4075 H         1 <0>         0.0804
     49 H22         9.7910    6.6915    2.4342 H         1 <0>         0.0954
     50 H23         9.3650    6.6396    0.6971 H         1 <0>         0.0619
@<TRIPOS>BOND
     1    1    6 ar
     2    1    2 ar
     3    1   29 1
     4    2    3 ar
     5    2   30 1
     6    3    4 ar
     7    3    8 1
     8    4    5 ar
     9    4   31 1
    10    5    6 ar
    11    5   32 1
    12    6    7 1
    13    8    9 2
    14    8   10 2
    15    8   11 1
    16   11   12 1
    17   11   33 1
    18   12   13 1
    19   12   34 1
    20   12   35 1
    21   13   14 1
    22   13   36 1
    23   13   37 1
    24   14   15 1
    25   14   38 1
    26   14   39 1
    27   15   16 2
    28   15   17 am
    29   17   18 1
    30   17   40 1
    31   18   19 1
    32   18   41 1
    33   19   20 2
    34   19   21 1
    35   21   22 1
    36   21   42 1
    37   22   23 1
    38   22   43 1
    39   22   44 1
    40   23   24 1
    41   23   28 1
    42   23   25 1
    43   25   26 1
    44   25   45 1
    45   25   46 1
    46   26   27 1
    47   26   47 1
    48   26   48 1
    49   27   28 1
    50   27   49 1
    51   27   50 1
@<TRIPOS>MOLECULE
ZINC39361533
   51    54     0     0     0
SMALL
USER_CHARGES

@<TRIPOS>ATOM
      1 C1         -0.0056    1.3754    0.1515 C.ar      1 <0>        -0.1139
      2 C2          0.2816    0.5181   -0.8950 C.ar      1 <0>        -0.1053
      3 C3          1.4870   -0.1548   -0.9275 C.ar      1 <0>        -0.1188
      4 C4          2.4119    0.0305    0.0925 C.ar      1 <0>         0.1572
      5 C5          2.1203    0.8928    1.1421 C.ar      1 <0>        -0.1140
      6 C6          0.9127    1.5621    1.1685 C.ar      1 <0>        -0.1030
      7 N1          3.6324   -0.6492    0.0631 N.pl3     1 <0>        -0.5792
      8 C7          3.8318   -2.1053    0.1568 C.3       1 <0>         0.3798
      9 H1          3.3422   -2.6127   -0.6744 H         1 <0>         0.0775
     10 N2          5.2934   -2.2686    0.0734 N.pl3     1 <0>        -0.6545
     11 N3          5.8233   -0.9790   -0.0557 N.2       1 <0>        -0.2947
     12 C8          4.8934   -0.0847   -0.0662 C.2       1 <0>         0.2594
     13 S1          5.1894    1.6454   -0.2208 S.3       1 <0>         0.0780
     14 C9          6.9942    1.7718   -0.3529 C.3       1 <0>        -0.1517
     15 C10         7.3874    3.2199   -0.4921 C.2       1 <0>         0.5388
     16 O1          6.5342    4.0818   -0.5013 O.2       1 <0>        -0.4982
     17 N4          8.6873    3.5571   -0.6064 N.am      1 <0>        -0.6650
     18 C11         9.0624    4.9064   -0.6162 C.ar      1 <0>         0.1143
     19 C12         8.3552    5.8306    0.1405 C.ar      1 <0>        -0.0935
     20 C13         8.7277    7.1608    0.1293 C.ar      1 <0>        -0.1077
     21 C14         9.8037    7.5735   -0.6350 C.ar      1 <0>        -0.1024
     22 C15        10.5111    6.6569   -1.3908 C.ar      1 <0>        -0.1341
     23 C16        10.1476    5.3225   -1.3796 C.ar      1 <0>         0.0739
     24 F1         10.8420    4.4258   -2.1137 F         1 <0>        -0.1364
     25 C17         3.3048   -2.6345    1.4922 C.3       1 <0>        -0.1226
     26 C18         3.5205   -4.1243    1.5626 C.2       1 <0>         0.2062
     27 N5          2.6062   -4.9782    1.0083 N.am      1 <0>        -0.6344
     28 C19         2.7898   -6.3098    1.0654 C.2       1 <0>         0.7014
     29 O2          1.9647   -7.0505    0.5663 O.2       1 <0>        -0.5351
     30 N6          3.8741   -6.8336    1.6667 N.am      1 <0>        -0.6589
     31 C20         4.7983   -6.0260    2.2249 C.2       1 <0>         0.5504
     32 O3          5.7796   -6.4990    2.7691 O.2       1 <0>        -0.5081
     33 C21         4.6198   -4.6227    2.1679 C.2       1 <0>        -0.2863
     34 H2         -0.9474    1.9036    0.1723 H         1 <0>         0.1278
     35 H3         -0.4378    0.3745   -1.6876 H         1 <0>         0.1293
     36 H4          1.7104   -0.8247   -1.7447 H         1 <0>         0.1247
     37 H5          2.8369    1.0388    1.9368 H         1 <0>         0.1284
     38 H6          0.6852    2.2323    1.9843 H         1 <0>         0.1303
     39 H7          5.7891   -3.1019    0.1026 H         1 <0>         0.4479
     40 H8          7.4541    1.3549    0.5431 H         1 <0>         0.1304
     41 H9          7.3342    1.2172   -1.2275 H         1 <0>         0.1286
     42 H10         9.3631    2.8653   -0.6818 H         1 <0>         0.4176
     43 H11         7.5142    5.5099    0.7374 H         1 <0>         0.1446
     44 H12         8.1774    7.8797    0.7181 H         1 <0>         0.1360
     45 H13        10.0920    8.6143   -0.6417 H         1 <0>         0.1366
     46 H14        11.3507    6.9825   -1.9869 H         1 <0>         0.1413
     47 H15         3.8383   -2.1510    2.3106 H         1 <0>         0.1133
     48 H16         2.2398   -2.4173    1.5743 H         1 <0>         0.1035
     49 H17         3.9909   -7.7960    1.6989 H         1 <0>         0.4333
     50 H18         5.3513   -3.9597    2.6058 H         1 <0>         0.1721
     51 H19         1.8182   -4.6202    0.5705 H         1 <0>         0.4355
@<TRIPOS>BOND
     1    1    6 ar
     2    1    2 ar
     3    1   34 1
     4    2    3 ar
     5    2   35 1
     6    3    4 ar
     7    3   36 1
     8    4    5 ar
     9    4    7 1
    10    5    6 ar
    11    5   37 1
    12    6   38 1
    13    7   12 1
    14    7    8 1
    15    8    9 1
    16    8   10 1
    17    8   25 1
    18   10   11 1
    19   10   39 1
    20   11   12 2
    21   12   13 1
    22   13   14 1
    23   14   15 1
    24   14   40 1
    25   14   41 1
    26   15   16 2
    27   15   17 am
    28   17   18 1
    29   17   42 1
    30   18   23 ar
    31   18   19 ar
    32   19   20 ar
    33   19   43 1
    34   20   21 ar
    35   20   44 1
    36   21   22 ar
    37   21   45 1
    38   22   23 ar
    39   22   46 1
    40   23   24 1
    41   25   47 1
    42   25   48 1
    43   25   26 1
    44   26   33 2
    45   26   27 1
    46   27   28 am
    47   27   51 1
    48   28   29 2
    49   28   30 am
    50   30   49 1
    51   30   31 am
    52   31   32 2
    53   31   33 1
    54   33   50 1
@<TRIPOS>MOLECULE
ZINC58582464
   54    57     0     0     0
SMALL
USER_CHARGES

@<TRIPOS>ATOM
      1 C1         -0.0134    1.5002    0.0189 C.3       1 <0>        -0.1786
      2 C2          0.0069   -0.0066    0.0049 C.2       1 <0>         0.5202
      3 O1          0.0327   -0.6224    1.0493 O.2       1 <0>        -0.5156
      4 N1         -0.0035   -0.6698   -1.1684 N.am      1 <0>        -0.7172
      5 C3          0.0163   -2.1346   -1.1820 C.3       1 <0>         0.1473
      6 H1          0.0039   -2.4885   -2.2129 H         1 <0>         0.1102
      7 C4          1.2842   -2.6340   -0.4864 C.3       1 <0>        -0.0577
      8 C5          2.4928   -2.2115   -1.2813 C.2       1 <0>        -0.1672
      9 C6          3.1347   -2.9415   -2.2071 C.2       1 <0>         0.0551
     10 N2          4.1860   -2.2291   -2.7165 N.pl3     1 <0>        -0.5945
     11 H2          4.7968   -2.5482   -3.3992 H         1 <0>         0.4166
     12 C7          4.2479   -0.9917   -2.1156 C.ar      1 <0>         0.0941
     13 C8          3.1862   -0.9240   -1.1948 C.ar      1 <0>        -0.0925
     14 C9          2.9959    0.2313   -0.4348 C.ar      1 <0>        -0.0762
     15 C10         3.8411    1.2937   -0.5921 C.ar      1 <0>        -0.1462
     16 C11         4.8874    1.2334   -1.5019 C.ar      1 <0>        -0.0965
     17 C12         5.0990    0.0994   -2.2556 C.ar      1 <0>        -0.1308
     18 C13        -1.1952   -2.6601   -0.4560 C.2       1 <0>         0.4987
     19 O2         -1.7926   -1.9469    0.3221 O.2       1 <0>        -0.4773
     20 N3         -1.6148   -3.9226   -0.6713 N.am      1 <0>        -0.6763
     21 C14        -2.6761   -4.4406    0.0702 C.ar      1 <0>         0.1785
     22 C15        -3.7325   -3.6144    0.4407 C.ar      1 <0>        -0.1288
     23 C16        -4.7818   -4.1226    1.1727 C.ar      1 <0>        -0.0358
     24 C17        -4.7854   -5.4701    1.5433 C.ar      1 <0>        -0.1554
     25 C18        -3.7230   -6.2973    1.1691 C.ar      1 <0>        -0.0653
     26 C19        -2.6791   -5.7838    0.4329 C.ar      1 <0>        -0.1543
     27 C20        -5.9085   -6.0182    2.3285 C.2       1 <0>         0.5657
     28 O3         -6.8320   -5.2972    2.6537 O.2       1 <0>        -0.5334
     29 N4         -5.9105   -7.3179    2.6851 N.am      1 <0>        -0.7006
     30 C21        -7.0252   -7.8620    3.4645 C.3       1 <0>         0.0781
     31 C22        -6.6844   -8.7909    4.6315 C.3       1 <0>        -0.1926
     32 C23        -7.2992   -9.3631    3.3527 C.3       1 <0>        -0.1884
     33 H3          1.0091    1.8776    0.0052 H         1 <0>         0.0940
     34 H4         -0.5470    1.8646   -0.8590 H         1 <0>         0.0783
     35 H5         -0.5171    1.8484    0.9206 H         1 <0>         0.0940
     36 H6         -0.0242   -0.1772   -2.0038 H         1 <0>         0.4056
     37 H7          1.3410   -2.2079    0.5152 H         1 <0>         0.1022
     38 H8          1.2565   -3.7215   -0.4176 H         1 <0>         0.0807
     39 H9          2.8619   -3.9430   -2.5055 H         1 <0>         0.1697
     40 H10         2.1834    0.2856    0.2746 H         1 <0>         0.1224
     41 H11         3.6935    2.1873   -0.0039 H         1 <0>         0.1221
     42 H12         5.5465    2.0814   -1.6155 H         1 <0>         0.1252
     43 H13         5.9153    0.0627   -2.9618 H         1 <0>         0.1191
     44 H14        -1.1786   -4.4710   -1.3420 H         1 <0>         0.4116
     45 H15        -3.7291   -2.5732    0.1540 H         1 <0>         0.1451
     46 H16        -5.6012   -3.4806    1.4606 H         1 <0>         0.1401
     47 H17        -3.7225   -7.3390    1.4542 H         1 <0>         0.1283
     48 H18        -1.8595   -6.4234    0.1403 H         1 <0>         0.1333
     49 H19        -5.1737   -7.8931    2.4257 H         1 <0>         0.4006
     50 H20        -7.8840   -7.2010    3.5812 H         1 <0>         0.1397
     51 H21        -5.6307   -8.9972    4.8194 H         1 <0>         0.0974
     52 H22        -7.3189   -8.7410    5.5164 H         1 <0>         0.1041
     53 H23        -8.3382   -9.6898    3.3962 H         1 <0>         0.1053
     54 H24        -6.6500   -9.9459    2.6992 H         1 <0>         0.0975
@<TRIPOS>BOND
     1    1    2 1
     2    1   33 1
     3    1   34 1
     4    1   35 1
     5    2    3 2
     6    2    4 am
     7    4    5 1
     8    4   36 1
     9    5    6 1
    10    5    7 1
    11    5   18 1
    12    7    8 1
    13    7   37 1
    14    7   38 1
    15    8   13 1
    16    8    9 2
    17    9   10 1
    18    9   39 1
    19   10   11 1
    20   10   12 1
    21   12   17 ar
    22   12   13 ar
    23   13   14 ar
    24   14   15 ar
    25   14   40 1
    26   15   16 ar
    27   15   41 1
    28   16   17 ar
    29   16   42 1
    30   17   43 1
    31   18   19 2
    32   18   20 am
    33   20   21 1
    34   20   44 1
    35   21   26 ar
    36   21   22 ar
    37   22   23 ar
    38   22   45 1
    39   23   24 ar
    40   23   46 1
    41   24   25 ar
    42   24   27 1
    43   25   26 ar
    44   25   47 1
    45   26   48 1
    46   27   28 2
    47   27   29 am
    48   29   30 1
    49   29   49 1
    50   30   32 1
    51   30   31 1
    52   30   50 1
    53   31   32 1
    54   31   51 1
    55   31   52 1
    56   32   53 1
    57   32   54 1
@<TRIPOS>MOLECULE
ZINC64891038
   58    61     0     0     0
SMALL
USER_CHARGES

@<TRIPOS>ATOM
      1 C1         -1.0169    3.1660    0.7944 C.3       1 <0>        -0.1725
      2 C2         -0.6585    1.6869    0.6375 C.3       1 <0>         0.1254
      3 N1         -1.8867    0.8957    0.5286 N.am      1 <0>        -0.5368
      4 C3         -2.5928    0.3363    1.5910 C.ar      1 <0>         0.0985
      5 C4         -2.4014    0.3335    2.9643 C.ar      1 <0>        -0.0983
      6 C5         -3.2974   -0.3270    3.7818 C.ar      1 <0>        -0.1022
      7 C6         -4.3853   -0.9866    3.2360 C.ar      1 <0>        -0.0926
      8 C7         -4.5839   -0.9898    1.8693 C.ar      1 <0>        -0.0753
      9 C8         -3.6903   -0.3286    1.0405 C.ar      1 <0>         0.0907
     10 N2         -3.6169   -0.1526   -0.3393 N.am      1 <0>        -0.6424
     11 H1         -4.2454   -0.5021   -0.9903 H         1 <0>         0.4358
     12 C9         -2.5284    0.5903   -0.6149 C.2       1 <0>         0.6816
     13 O1         -2.1761    0.9310   -1.7287 O.2       1 <0>        -0.5514
     14 C10        -5.3567   -1.7047    4.1370 C.3       1 <0>         0.2468
     15 H2         -6.1632   -1.0331    4.4310 H         1 <0>         0.1019
     16 N3         -4.6578   -2.2178    5.3348 N.3       1 <0>        -0.6638
     17 C11        -4.8166   -3.6896    5.3083 C.3       1 <0>         0.2251
     18 H3         -3.9512   -4.1563    4.8377 H         1 <0>         0.0720
     19 O2         -6.0043   -3.9174    4.5162 O.3       1 <0>        -0.2241
     20 N4         -5.9082   -2.8955    3.4485 N.3       1 <0>        -0.4870
     21 C12        -5.0072   -4.2307    6.7266 C.3       1 <0>         0.1783
     22 H4         -5.9448   -3.8547    7.1360 H         1 <0>         0.1025
     23 C13        -5.0441   -5.7598    6.6885 C.3       1 <0>        -0.1034
     24 C14        -3.6821   -6.2917    6.2381 C.3       1 <0>        -0.1531
     25 C15        -5.3653   -6.2972    8.0845 C.3       1 <0>        -0.1497
     26 N5         -3.8941   -3.7900    7.5711 N.pl3     1 <0>        -1.1027
     27 S1         -4.1716   -2.7539    8.8327 S.o2      1 <0>         2.6903
     28 O3         -2.9155   -2.5298    9.4581 O.2       1 <0>        -0.9603
     29 O4         -4.9673   -1.6940    8.3202 O.2       1 <0>        -0.9311
     30 C16        -5.1704   -3.6132   10.0025 C.ar      1 <0>        -0.6765
     31 C17        -6.5474   -3.5045    9.9478 C.ar      1 <0>        -0.0201
     32 C18        -7.3310   -4.1787   10.8656 C.ar      1 <0>        -0.1391
     33 C19        -6.7376   -4.9619   11.8379 C.ar      1 <0>        -0.0619
     34 C20        -5.3607   -5.0714   11.8921 C.ar      1 <0>        -0.1390
     35 C21        -4.5772   -4.4006   10.9716 C.ar      1 <0>        -0.0190
     36 H5         -0.1031    3.7547    0.8755 H         1 <0>         0.0780
     37 H6         -1.5859    3.4961   -0.0747 H         1 <0>         0.0630
     38 H7         -1.6170    3.3010    1.6943 H         1 <0>         0.0617
     39 H8         -0.0584    1.5519   -0.2623 H         1 <0>         0.0955
     40 H9         -0.0895    1.3567    1.5066 H         1 <0>         0.0915
     41 H10        -1.5535    0.8464    3.3936 H         1 <0>         0.1354
     42 H11        -3.1485   -0.3292    4.8515 H         1 <0>         0.1401
     43 H12        -5.4333   -1.5061    1.4470 H         1 <0>         0.1347
     44 H13        -3.6827   -1.9590    5.3231 H         1 <0>         0.3578
     45 H14        -6.8153   -2.6970    3.0536 H         1 <0>         0.3638
     46 H15        -5.8119   -6.0873    5.9875 H         1 <0>         0.0902
     47 H16        -2.9143   -5.9642    6.9390 H         1 <0>         0.0577
     48 H17        -3.7084   -7.3811    6.2109 H         1 <0>         0.0618
     49 H18        -3.4533   -5.9089    5.2435 H         1 <0>         0.0587
     50 H19        -6.3337   -5.9149    8.4071 H         1 <0>         0.0560
     51 H20        -5.3957   -7.3864    8.0564 H         1 <0>         0.0601
     52 H21        -4.5952   -5.9731    8.7846 H         1 <0>         0.0574
     53 H22        -2.9945   -4.1052    7.3912 H         1 <0>         0.4180
     54 H23        -7.0110   -2.8926    9.1882 H         1 <0>         0.1400
     55 H24        -8.4068   -4.0932   10.8232 H         1 <0>         0.1324
     56 H25        -7.3498   -5.4881   12.5554 H         1 <0>         0.1303
     57 H26        -4.8971   -5.6830   12.6519 H         1 <0>         0.1322
     58 H27        -3.5016   -4.4890   11.0117 H         1 <0>         0.1374
@<TRIPOS>BOND
     1    1    2 1
     2    1   36 1
     3    1   37 1
     4    1   38 1
     5    2    3 1
     6    2   39 1
     7    2   40 1
     8    3   12 am
     9    3    4 1
    10    4    9 ar
    11    4    5 ar
    12    5    6 ar
    13    5   41 1
    14    6    7 ar
    15    6   42 1
    16    7    8 ar
    17    7   14 1
    18    8    9 ar
    19    8   43 1
    20    9   10 1
    21   10   11 1
    22   10   12 am
    23   12   13 2
    24   14   15 1
    25   14   20 1
    26   14   16 1
    27   16   17 1
    28   16   44 1
    29   17   18 1
    30   17   19 1
    31   17   21 1
    32   19   20 1
    33   20   45 1
    34   21   22 1
    35   21   23 1
    36   21   26 1
    37   23   24 1
    38   23   25 1
    39   23   46 1
    40   24   47 1
    41   24   48 1
    42   24   49 1
    43   25   50 1
    44   25   51 1
    45   25   52 1
    46   26   27 1
    47   26   53 1
    48   27   28 2
    49   27   29 2
    50   27   30 1
    51   30   35 ar
    52   30   31 ar
    53   31   32 ar
    54   31   54 1
    55   32   33 ar
    56   32   55 1
    57   33   34 ar
    58   33   56 1
    59   34   35 ar
    60   34   57 1
    61   35   58 1
@<TRIPOS>MOLECULE
ZINC12135936
   63    67     0     0     0
SMALL
USER_CHARGES
4-[4-(1,3-benzodioxol-5-ylmethylamino)-1-piperidyl]-N-cyclopentyl-benzamide
@<TRIPOS>ATOM
      1 C1          9.1436    8.1395   -3.0484 C.ar      1 <0>        -0.0310
      2 C2          8.0291    7.3542   -2.8613 C.ar      1 <0>        -0.1428
      3 C3          8.1333    5.9677   -2.9303 C.ar      1 <0>         0.1252
      4 C4          9.3654    5.3710   -3.1834 C.ar      1 <0>        -0.1764
      5 C5         10.4823    6.1510   -3.3776 C.ar      1 <0>        -0.0570
      6 C6         10.3811    7.5436   -3.3085 C.ar      1 <0>        -0.1495
      7 C7         11.5779    8.3825   -3.5091 C.2       1 <0>         0.5561
      8 O1         11.4885    9.5937   -3.4483 O.2       1 <0>        -0.5317
      9 N1         12.7703    7.8066   -3.7597 N.am      1 <0>        -0.7201
     10 C8         13.9588    8.6397   -3.9589 C.3       1 <0>         0.1386
     11 C9         14.0831    9.0363   -5.4445 C.3       1 <0>        -0.1351
     12 C10        15.6069    9.0039   -5.7201 C.3       1 <0>        -0.1260
     13 C11        16.0775    7.7804   -4.8950 C.3       1 <0>        -0.1253
     14 C12        15.2268    7.8412   -3.6095 C.3       1 <0>        -0.1317
     15 N2          7.0055    5.1769   -2.7403 N.pl3     1 <0>        -0.4891
     16 C13         7.3372    3.7510   -2.8546 C.3       1 <0>         0.0498
     17 C14         6.0538    2.9202   -2.7855 C.3       1 <0>        -0.1403
     18 C15         5.3456    3.1936   -1.4558 C.3       1 <0>         0.0250
     19 C16         5.0547    4.6925   -1.3402 C.3       1 <0>        -0.1392
     20 C17         6.3670    5.4719   -1.4512 C.3       1 <0>         0.0568
     21 C18         3.6760    2.1855   -0.0210 C.3       1 <0>         0.0564
     22 C19         2.3803    1.4160   -0.0127 C.ar      1 <0>        -0.1632
     23 C20         2.3990    0.0336   -0.0208 C.ar      1 <0>        -0.0765
     24 C21         1.2132   -0.6768   -0.0133 C.ar      1 <0>        -0.1017
     25 C22         0.0021   -0.0041    0.0020 C.ar      1 <0>         0.0744
     26 C23        -0.0168    1.3885    0.0097 C.ar      1 <0>         0.0396
     27 C24         1.1756    2.0938    0.0021 C.ar      1 <0>        -0.0792
     28 O2         -1.3160    1.8071    0.0188 O.3       1 <0>        -0.3002
     29 C25        -2.0922    0.6660   -0.3865 C.3       1 <0>         0.2111
     30 O3         -1.2852   -0.4579    0.0120 O.3       1 <0>        -0.2976
     31 H1          9.0621    9.2151   -2.9948 H         1 <0>         0.1428
     32 H2          7.0728    7.8140   -2.6604 H         1 <0>         0.1340
     33 H3          9.4439    4.2949   -3.2320 H         1 <0>         0.1333
     34 H4         11.4370    5.6877   -3.5783 H         1 <0>         0.1291
     35 H5         12.8416    6.8404   -3.8082 H         1 <0>         0.3974
     36 H6         13.8968    9.5328   -3.3372 H         1 <0>         0.0945
     37 H7         13.5657    8.3146   -6.0766 H         1 <0>         0.0692
     38 H8         13.6875   10.0390   -5.6061 H         1 <0>         0.0726
     39 H9         16.0835    9.9169   -5.3632 H         1 <0>         0.0717
     40 H10        15.8045    8.8532   -6.7814 H         1 <0>         0.0710
     41 H11        17.1374    7.8666   -4.6555 H         1 <0>         0.0711
     42 H12        15.8822    6.8559   -5.4383 H         1 <0>         0.0669
     43 H13        15.7807    8.3472   -2.8188 H         1 <0>         0.0776
     44 H14        14.9580    6.8338   -3.2917 H         1 <0>         0.0695
     45 H15         7.9992    3.4654   -2.0371 H         1 <0>         0.0611
     46 H16         7.8365    3.5696   -3.8064 H         1 <0>         0.1062
     47 H17         6.3018    1.8610   -2.8547 H         1 <0>         0.0992
     48 H18         5.3973    3.1955   -3.6109 H         1 <0>         0.0994
     49 H19         5.9861    2.8812   -0.6310 H         1 <0>         0.1402
     50 H20         4.3824    4.9956   -2.1429 H         1 <0>         0.0998
     51 H21         4.5888    4.8995   -0.3768 H         1 <0>         0.0980
     52 H22         7.0335    5.1783   -0.6402 H         1 <0>         0.0594
     53 H23         6.1616    6.5402   -1.3837 H         1 <0>         0.1058
     54 H24         3.5390    3.1333    0.4997 H         1 <0>         0.1389
     55 H25         4.4478    1.6029    0.4820 H         1 <0>         0.1416
     56 H26         3.3422   -0.4925   -0.0327 H         1 <0>         0.1476
     57 H27         1.2308   -1.7566   -0.0189 H         1 <0>         0.1501
     58 H28         1.1640    3.1737    0.0080 H         1 <0>         0.1445
     59 H29        -2.2366    0.6700   -1.4669 H         1 <0>         0.0962
     60 H30        -3.0534    0.6487    0.1272 H         1 <0>         0.1450
     61 N3          4.0779    2.4403   -1.4172 N.4       1 <0>        -0.5173
     62 H31         4.2015    1.5443   -1.9030 H         1 <0>         0.4321
     63 H32         3.3454    2.9858   -1.8863 H         1 <0>         0.4320
@<TRIPOS>BOND
     1    1    6 ar
     2    1    2 ar
     3    1   31 1
     4    2    3 ar
     5    2   32 1
     6    3    4 ar
     7    3   15 1
     8    4    5 ar
     9    4   33 1
    10    5    6 ar
    11    5   34 1
    12    6    7 1
    13    7    8 2
    14    7    9 am
    15    9   10 1
    16    9   35 1
    17   10   14 1
    18   10   11 1
    19   10   36 1
    20   11   12 1
    21   11   37 1
    22   11   38 1
    23   12   13 1
    24   12   39 1
    25   12   40 1
    26   13   14 1
    27   13   41 1
    28   13   42 1
    29   14   43 1
    30   14   44 1
    31   15   20 1
    32   15   16 1
    33   16   17 1
    34   16   45 1
    35   16   46 1
    36   17   18 1
    37   17   47 1
    38   17   48 1
    39   18   19 1
    40   18   49 1
    41   18   61 1
    42   19   20 1
    43   19   50 1
    44   19   51 1
    45   20   52 1
    46   20   53 1
    47   21   22 1
    48   21   54 1
    49   21   55 1
    50   21   61 1
    51   22   27 ar
    52   22   23 ar
    53   23   24 ar
    54   23   56 1
    55   24   25 ar
    56   24   57 1
    57   25   30 1
    58   25   26 ar
    59   26   27 ar
    60   26   28 1
    61   27   58 1
    62   28   29 1
    63   29   30 1
    64   29   59 1
    65   29   60 1
    66   61   62 1
    67   61   63 1
@<TRIPOS>MOLECULE
ZINC30942313
   63    66     0     0     0
SMALL
USER_CHARGES
(3S)-1-[(4-fluorophenyl)methyl]-N-[2-[[(2S)-tetrahydrofuran-2-yl]methylcarbamoyl]phenyl]piperidine-3-carboxamide
@<TRIPOS>ATOM
      1 C1         -2.2964    9.9643   -0.4962 C.ar      1 <0>        -0.1345
      2 C2         -1.1772    9.2894   -0.0360 C.ar      1 <0>        -0.0705
      3 C3         -1.0948    7.9161   -0.1472 C.ar      1 <0>        -0.1329
      4 C4         -2.1363    7.2010   -0.7232 C.ar      1 <0>         0.2012
      5 C5         -3.2682    7.8817   -1.1954 C.ar      1 <0>        -0.1658
      6 C6         -3.3401    9.2711   -1.0698 C.ar      1 <0>        -0.0652
      7 C7         -4.3787    7.1342   -1.8154 C.2       1 <0>         0.5716
      8 O1         -4.3591    5.9186   -1.8313 O.2       1 <0>        -0.5609
      9 N1         -5.4148    7.7988   -2.3641 N.am      1 <0>        -0.7254
     10 C8         -6.5176    7.0565   -2.9798 C.3       1 <0>         0.1249
     11 C9         -7.5552    8.0414   -3.5224 C.3       1 <0>         0.0578
     12 H1         -7.7889    8.7638   -2.7265 H         1 <0>         0.0779
     13 C10        -8.7861    7.2814   -4.0645 C.3       1 <0>        -0.1454
     14 C11        -9.2088    8.0916   -5.3103 C.3       1 <0>        -0.1568
     15 C12        -8.1833    9.2452   -5.3736 C.3       1 <0>         0.0454
     16 O2         -7.0267    8.7501   -4.6645 O.3       1 <0>        -0.3691
     17 N2         -2.0551    5.8151   -0.8368 N.am      1 <0>        -0.6602
     18 C13        -1.4448    5.0948    0.1251 C.2       1 <0>         0.5245
     19 O3         -0.8954    5.6580    1.0480 O.2       1 <0>        -0.5232
     20 C14        -1.4452    3.5895    0.0538 C.3       1 <0>        -0.1264
     21 H2         -2.4879    3.2393    0.0674 H         1 <0>         0.1269
     22 C15        -0.7574    3.1387   -1.2378 C.3       1 <0>        -0.1328
     23 C16        -0.7086    1.6087   -1.2736 C.3       1 <0>        -0.1411
     24 C17         0.0286    1.0975   -0.0337 C.3       1 <0>        -0.0123
     25 N3         -0.6689    1.5547    1.1749 N.4       1 <0>        -0.3940
     26 C18        -0.6867    3.0209    1.2552 C.3       1 <0>         0.0094
     27 C19        -0.0702    0.9689    2.3817 C.3       1 <0>         0.0488
     28 C20         1.3306    1.4971    2.5547 C.ar      1 <0>        -0.1728
     29 C21         2.3970    0.8256    1.9864 C.ar      1 <0>        -0.0653
     30 C22         3.6815    1.3117    2.1403 C.ar      1 <0>        -0.1530
     31 C23         3.9012    2.4659    2.8728 C.ar      1 <0>         0.1383
     32 C24         2.8328    3.1347    3.4459 C.ar      1 <0>        -0.1497
     33 C25         1.5487    2.6496    3.2863 C.ar      1 <0>        -0.0607
     34 F1          5.1569    2.9395    3.0279 F         1 <0>        -0.1231
     35 H3         -2.3512   11.0390   -0.4046 H         1 <0>         0.1353
     36 H4         -0.3642    9.8413    0.4122 H         1 <0>         0.1344
     37 H5         -0.2191    7.3972    0.2139 H         1 <0>         0.1438
     38 H6         -4.2104    9.8019   -1.4267 H         1 <0>         0.1320
     39 H7         -5.4325    8.8986   -2.3497 H         1 <0>         0.4279
     40 H8         -6.1297    6.4410   -3.8048 H         1 <0>         0.0788
     41 H9         -6.9875    6.4065   -2.2270 H         1 <0>         0.0834
     42 H10        -8.4978    6.2509   -4.3192 H         1 <0>         0.0804
     43 H11        -9.5731    7.2627   -3.2962 H         1 <0>         0.0821
     44 H12        -9.1619    7.4468   -6.2003 H         1 <0>         0.0787
     45 H13       -10.2371    8.4588   -5.1774 H         1 <0>         0.0816
     46 H14        -7.9509    9.4719   -6.4246 H         1 <0>         0.0972
     47 H15        -8.6060   10.1385   -4.8906 H         1 <0>         0.0645
     48 H16        -2.4891    5.3086   -1.7115 H         1 <0>         0.4496
     49 H17        -1.3241    3.5107   -2.1041 H         1 <0>         0.1001
     50 H18         0.2656    3.5418   -1.2684 H         1 <0>         0.0884
     51 H19        -1.7335    1.2093   -1.2836 H         1 <0>         0.0941
     52 H20        -0.1781    1.2798   -2.1794 H         1 <0>         0.1179
     53 H21         0.0527   -0.0021   -0.0489 H         1 <0>         0.1347
     54 H22         1.0574    1.4868   -0.0323 H         1 <0>         0.1273
     55 H23         0.3457    3.4006    1.2501 H         1 <0>         0.1369
     56 H24        -1.1868    3.3308    2.1847 H         1 <0>         0.1387
     57 H25        -0.6752    1.2397    3.2596 H         1 <0>         0.1406
     58 H26        -0.0394   -0.1261    2.2813 H         1 <0>         0.1420
     59 H27         2.2259   -0.0770    1.4185 H         1 <0>         0.1407
     60 H28         4.5141    0.7892    1.6928 H         1 <0>         0.1485
     61 H29         3.0029    4.0353    4.0172 H         1 <0>         0.1490
     62 H30         0.7152    3.1713    3.7329 H         1 <0>         0.1418
     63 H31        -1.7114    1.2096    1.1109 H         1 <0>         0.4445
@<TRIPOS>BOND
     1    1    6 ar
     2    1    2 ar
     3    1   35 1
     4    2    3 ar
     5    2   36 1
     6    3    4 ar
     7    3   37 1
     8    4    5 ar
     9    4   17 1
    10    5    6 ar
    11    5    7 1
    12    6   38 1
    13    7    8 2
    14    7    9 am
    15    9   10 1
    16    9   39 1
    17   10   11 1
    18   10   40 1
    19   10   41 1
    20   11   12 1
    21   11   16 1
    22   11   13 1
    23   13   14 1
    24   13   42 1
    25   13   43 1
    26   14   15 1
    27   14   44 1
    28   14   45 1
    29   15   16 1
    30   15   46 1
    31   15   47 1
    32   17   18 am
    33   17   48 1
    34   18   19 2
    35   18   20 1
    36   20   21 1
    37   20   26 1
    38   20   22 1
    39   22   23 1
    40   22   49 1
    41   22   50 1
    42   23   24 1
    43   23   51 1
    44   23   52 1
    45   24   25 1
    46   24   53 1
    47   24   54 1
    48   25   26 1
    49   25   27 1
    50   25   63 1
    51   26   55 1
    52   26   56 1
    53   27   28 1
    54   27   57 1
    55   27   58 1
    56   28   33 ar
    57   28   29 ar
    58   29   30 ar
    59   29   59 1
    60   30   31 ar
    61   30   60 1
    62   31   32 ar
    63   31   34 1
    64   32   33 ar
    65   32   61 1
    66   33   62 1
@<TRIPOS>MOLECULE
ZINC23362860
   68    73     0     0     0
SMALL
USER_CHARGES

@<TRIPOS>ATOM
      1 C1        -12.7913   -3.4193   -3.0195 C.2       1 <0>        -0.1477
      2 C2        -13.3069   -2.7166   -1.9813 C.2       1 <0>        -0.1722
      3 S1        -12.5353   -3.5088   -0.5798 S.3       1 <0>         0.0504
      4 C3        -11.5778   -4.7228   -1.4724 C.2       1 <0>        -0.1505
      5 C4        -11.9051   -4.4475   -2.7586 C.2       1 <0>        -0.1465
      6 C5        -11.3120   -5.2508   -3.8873 C.3       1 <0>         0.1747
      7 N1        -10.0655   -4.6223   -4.3316 N.am      1 <0>        -0.7118
      8 C6         -9.3561   -5.1702   -5.3381 C.2       1 <0>         0.5707
      9 O1         -9.7013   -6.2337   -5.8171 O.2       1 <0>        -0.5445
     10 C7         -8.1643   -4.4821   -5.8574 C.2       1 <0>        -0.2613
     11 C8         -7.4926   -4.9734   -6.9749 C.2       1 <0>         0.0598
     12 C9         -6.3662   -4.2940   -7.4385 C.2       1 <0>        -0.2245
     13 C10        -5.9380   -3.1724   -6.8046 C.2       1 <0>         0.1834
     14 N2         -6.5857   -2.6895   -5.7177 N.am      1 <0>        -0.5845
     15 C11        -7.6818   -3.3030   -5.2327 C.2       1 <0>         0.5337
     16 O2         -8.2545   -2.8501   -4.2567 O.2       1 <0>        -0.5339
     17 C12        -4.7189   -2.4516   -7.3198 C.3       1 <0>         0.0795
     18 N3         -5.1043   -1.1164   -7.7958 N.3       1 <0>        -0.5428
     19 C13        -3.9355   -0.2290   -7.8783 C.3       1 <0>         0.0290
     20 C14        -4.3873    1.1649   -8.3194 C.3       1 <0>        -0.0113
     21 N4         -5.0481    1.0743   -9.6281 N.4       1 <0>        -0.3800
     22 C15        -6.2272    0.2046   -9.5239 C.3       1 <0>        -0.0107
     23 C16        -5.7908   -1.1973   -9.0928 C.3       1 <0>         0.0242
     24 C17        -5.4655    2.4151  -10.0594 C.3       1 <0>         0.0618
     25 C18        -4.2373    3.3207  -10.1698 C.3       1 <0>        -0.1258
     26 C19        -4.6720    4.7171  -10.6191 C.3       1 <0>        -0.0791
     27 C20        -5.3604    4.6231  -11.9822 C.3       1 <0>        -0.1195
     28 C21        -6.5886    3.7174  -11.8719 C.3       1 <0>        -0.0791
     29 C22        -6.1539    2.3210  -11.4226 C.3       1 <0>        -0.1263
     30 C23        -7.5632    4.3023  -10.8476 C.3       1 <0>        -0.1194
     31 C24        -6.8748    4.3964   -9.4845 C.3       1 <0>        -0.0801
     32 C25        -5.6465    5.3020   -9.5948 C.3       1 <0>        -0.1191
     33 C26        -6.4401    3.0000   -9.0352 C.3       1 <0>        -0.1251
     34 H1        -13.0722   -3.1822   -4.0350 H         1 <0>         0.1338
     35 H2        -14.0034   -1.8914   -1.9978 H         1 <0>         0.1875
     36 H3        -10.9105   -5.4797   -1.0874 H         1 <0>         0.1876
     37 H4        -11.1054   -6.2640   -3.5427 H         1 <0>         0.0782
     38 H5        -12.0172   -5.2862   -4.7178 H         1 <0>         0.0758
     39 H6         -9.7508   -3.8119   -3.9014 H         1 <0>         0.4167
     40 H7         -7.8385   -5.8664   -7.4741 H         1 <0>         0.1565
     41 H8         -5.8333   -4.6611   -8.3031 H         1 <0>         0.1555
     42 H9         -3.9881   -2.3543   -6.5171 H         1 <0>         0.1146
     43 H10        -4.2822   -3.0184   -8.1421 H         1 <0>         0.0904
     44 H11        -3.4584   -0.1642   -6.9004 H         1 <0>         0.1270
     45 H12        -3.2265   -0.6280   -8.6036 H         1 <0>         0.0677
     46 H13        -5.0858    1.5692   -7.5869 H         1 <0>         0.1402
     47 H14        -3.5200    1.8209   -8.3950 H         1 <0>         0.1393
     48 H15        -6.9164    0.6138   -8.7852 H         1 <0>         0.1395
     49 H16        -6.7241    0.1486  -10.4925 H         1 <0>         0.1390
     50 H17        -5.1123   -1.6123   -9.8381 H         1 <0>         0.0692
     51 H18        -6.6672   -1.8389   -9.0010 H         1 <0>         0.1250
     52 H19        -3.7468    3.3877   -9.1987 H         1 <0>         0.0865
     53 H20        -3.5430    2.9040  -10.8995 H         1 <0>         0.0854
     54 H21        -3.7970    5.3623  -10.6977 H         1 <0>         0.0925
     55 H22        -5.6701    5.6179  -12.3023 H         1 <0>         0.0805
     56 H23        -4.6661    4.2064  -12.7119 H         1 <0>         0.0708
     57 H24        -7.0791    3.6504  -12.8430 H         1 <0>         0.0926
     58 H25        -5.4596    1.9043  -12.1523 H         1 <0>         0.0855
     59 H26        -7.0289    1.6758  -11.3440 H         1 <0>         0.0865
     60 H27        -7.8729    5.2972  -11.1677 H         1 <0>         0.0805
     61 H28        -8.4382    3.6571  -10.7690 H         1 <0>         0.0705
     62 H29        -7.5691    4.8131   -8.7548 H         1 <0>         0.0922
     63 H30        -5.1561    5.3691   -8.6237 H         1 <0>         0.0705
     64 H31        -5.9562    6.2969   -9.9149 H         1 <0>         0.0804
     65 H32        -7.3151    2.3548   -8.9566 H         1 <0>         0.0861
     66 H33        -5.9496    3.0670   -8.0641 H         1 <0>         0.0863
     67 H34        -4.4050    0.6891  -10.3035 H         1 <0>         0.4177
     68 H35        -6.2572   -1.8863   -5.2842 H         1 <0>         0.4207
@<TRIPOS>BOND
     1    1    5 1
     2    1    2 2
     3    1   34 1
     4    2    3 1
     5    2   35 1
     6    3    4 1
     7    4    5 2
     8    4   36 1
     9    5    6 1
    10    6    7 1
    11    6   37 1
    12    6   38 1
    13    7    8 am
    14    7   39 1
    15    8    9 2
    16    8   10 1
    17   10   15 1
    18   10   11 2
    19   11   12 1
    20   11   40 1
    21   12   13 2
    22   12   41 1
    23   13   14 1
    24   13   17 1
    25   14   15 am
    26   14   68 1
    27   15   16 2
    28   17   18 1
    29   17   42 1
    30   17   43 1
    31   18   23 1
    32   18   19 1
    33   19   20 1
    34   19   44 1
    35   19   45 1
    36   20   21 1
    37   20   46 1
    38   20   47 1
    39   21   22 1
    40   21   24 1
    41   21   67 1
    42   22   23 1
    43   22   48 1
    44   22   49 1
    45   23   50 1
    46   23   51 1
    47   24   29 1
    48   24   33 1
    49   24   25 1
    50   25   26 1
    51   25   52 1
    52   25   53 1
    53   26   32 1
    54   26   27 1
    55   26   54 1
    56   27   28 1
    57   27   55 1
    58   27   56 1
    59   28   29 1
    60   28   30 1
    61   28   57 1
    62   29   58 1
    63   29   59 1
    64   30   31 1
    65   30   60 1
    66   30   61 1
    67   31   32 1
    68   31   33 1
    69   31   62 1
    70   32   63 1
    71   32   64 1
    72   33   65 1
    73   33   66 1
@<TRIPOS>MOLECULE
ZINC59890803
   65    67     0     0     0
SMALL
USER_CHARGES

@<TRIPOS>ATOM
      1 C1          0.1805    1.8324    0.0817 C.3       1 <0>        -0.1147
      2 C2          0.2781    0.3350   -0.0571 C.ar      1 <0>        -0.1012
      3 C3          0.4584   -0.2336   -1.3029 C.ar      1 <0>        -0.0975
      4 C4          0.5476   -1.6074   -1.4312 C.ar      1 <0>        -0.1254
      5 C5          0.4571   -2.4168   -0.3134 C.ar      1 <0>        -0.0936
      6 C6          0.2774   -1.8549    0.9351 C.ar      1 <0>        -0.1715
      7 C7          0.1926   -0.4746    1.0682 C.ar      1 <0>         0.1452
      8 N1          0.0161    0.0974    2.3302 N.pl3     1 <0>        -1.0497
      9 S1          0.7373   -0.5837    3.6562 S.o2      1 <0>         2.6881
     10 O1          0.4929    0.2937    4.7469 O.2       1 <0>        -0.9418
     11 O2          0.3459   -1.9496    3.6747 O.2       1 <0>        -0.9363
     12 C8          2.4761   -0.5619    3.3722 C.ar      1 <0>        -0.6468
     13 C9          3.0841   -1.6317    2.7396 C.ar      1 <0>        -0.0150
     14 C10         4.4451   -1.6210    2.5142 C.ar      1 <0>        -0.0733
     15 C11         5.2089   -0.5277    2.9259 C.ar      1 <0>        -0.0871
     16 C12         4.5893    0.5482    3.5636 C.ar      1 <0>        -0.1096
     17 C13         3.2266    0.5274    3.7778 C.ar      1 <0>        -0.0216
     18 C14         6.6680   -0.5097    2.6881 C.2       1 <0>         0.5662
     19 O3          7.2049   -1.4483    2.1329 O.2       1 <0>        -0.5097
     20 N2          7.4028    0.5475    3.0869 N.am      1 <0>        -0.7260
     21 C15         8.8486    0.5654    2.8512 C.3       1 <0>         0.1079
     22 C16         9.4569    1.8067    3.5070 C.3       1 <0>         0.0465
     23 C17         9.0985    1.8252    4.9943 C.3       1 <0>        -0.1397
     24 C18         9.7068    3.0665    5.6501 C.3       1 <0>        -0.1333
     25 C19         9.1520    4.3230    4.9761 C.3       1 <0>        -0.1292
     26 C20         9.5105    4.3045    3.4888 C.3       1 <0>        -0.0999
     27 H1         10.5944    4.2804    3.3765 H         1 <0>         0.0655
     28 C21         8.9021    3.0632    2.8330 C.3       1 <0>        -0.1374
     29 C22         8.9557    5.5610    2.8148 C.3       1 <0>        -0.1534
     30 N3         10.9177    1.7742    3.3557 N.4       1 <0>        -0.3768
     31 C23        11.4408    0.5229    3.9200 C.3       1 <0>        -0.0629
     32 C24        11.2642    1.8511    1.9302 C.3       1 <0>        -0.0622
     33 H2          1.1764    2.2490    0.2326 H         1 <0>         0.0711
     34 H3         -0.2561    2.2535   -0.8239 H         1 <0>         0.0736
     35 H4         -0.4494    2.0778    0.9368 H         1 <0>         0.0642
     36 H5          0.5294    0.3956   -2.1778 H         1 <0>         0.1285
     37 H6          0.6878   -2.0495   -2.4066 H         1 <0>         0.1278
     38 H7          0.5268   -3.4895   -0.4171 H         1 <0>         0.1324
     39 H8          0.2065   -2.4875    1.8075 H         1 <0>         0.1602
     40 H9         -0.5290    0.8936    2.4299 H         1 <0>         0.4287
     41 H10         2.4920   -2.4772    2.4218 H         1 <0>         0.1535
     42 H11         4.9185   -2.4568    2.0206 H         1 <0>         0.1510
     43 H12         5.1747    1.3972    3.8846 H         1 <0>         0.1324
     44 H13         2.7453    1.3612    4.2672 H         1 <0>         0.1513
     45 H14         6.9743    1.2965    3.5299 H         1 <0>         0.4061
     46 H15         9.2979   -0.3298    3.2812 H         1 <0>         0.0973
     47 H16         9.0416    0.5895    1.7787 H         1 <0>         0.0932
     48 H17         8.0145    1.8493    5.1065 H         1 <0>         0.1084
     49 H18         9.4937    0.9300    5.4744 H         1 <0>         0.0953
     50 H19         9.4514    3.0797    6.7096 H         1 <0>         0.0967
     51 H20        10.7907    3.0424    5.5378 H         1 <0>         0.0591
     52 H21         8.0681    4.3471    5.0883 H         1 <0>         0.0806
     53 H22         9.5854    5.2074    5.4433 H         1 <0>         0.0841
     54 H23         9.1575    3.0500    1.7734 H         1 <0>         0.0966
     55 H24         7.8182    3.0873    2.9452 H         1 <0>         0.1086
     56 H25         9.3891    6.4454    3.2820 H         1 <0>         0.0694
     57 H26         9.2111    5.5478    1.7552 H         1 <0>         0.0626
     58 H27         7.8718    5.5851    2.9270 H         1 <0>         0.0658
     59 H28        12.5303    0.5400    3.8940 H         1 <0>         0.1310
     60 H29        11.1035    0.4205    4.9514 H         1 <0>         0.1272
     61 H30        11.0766   -0.3205    3.3332 H         1 <0>         0.1275
     62 H31        10.8761    2.7796    1.5115 H         1 <0>         0.1279
     63 H32        12.3482    1.8270    1.8180 H         1 <0>         0.1308
     64 H33        10.8255    1.0036    1.4035 H         1 <0>         0.1261
     65 H34        11.3239    2.5587    3.8433 H         1 <0>         0.4271
@<TRIPOS>BOND
     1    1    2 1
     2    1   33 1
     3    1   34 1
     4    1   35 1
     5    2    7 ar
     6    2    3 ar
     7    3    4 ar
     8    3   36 1
     9    4    5 ar
    10    4   37 1
    11    5    6 ar
    12    5   38 1
    13    6    7 ar
    14    6   39 1
    15    7    8 1
    16    8    9 1
    17    8   40 1
    18    9   10 2
    19    9   11 2
    20    9   12 1
    21   12   17 ar
    22   12   13 ar
    23   13   14 ar
    24   13   41 1
    25   14   15 ar
    26   14   42 1
    27   15   16 ar
    28   15   18 1
    29   16   17 ar
    30   16   43 1
    31   17   44 1
    32   18   19 2
    33   18   20 am
    34   20   21 1
    35   20   45 1
    36   21   22 1
    37   21   46 1
    38   21   47 1
    39   22   28 1
    40   22   23 1
    41   22   30 1
    42   23   24 1
    43   23   48 1
    44   23   49 1
    45   24   25 1
    46   24   50 1
    47   24   51 1
    48   25   26 1
    49   25   52 1
    50   25   53 1
    51   26   27 1
    52   26   28 1
    53   26   29 1
    54   28   54 1
    55   28   55 1
    56   29   56 1
    57   29   57 1
    58   29   58 1
    59   30   31 1
    60   30   32 1
    61   30   65 1
    62   31   59 1
    63   31   60 1
    64   31   61 1
    65   32   62 1
    66   32   63 1
    67   32   64 1
@<TRIPOS>MOLECULE
ZINC65074889
   64    67     0     0     0
SMALL
USER_CHARGES

@<TRIPOS>ATOM
      1 C1         -0.0184    1.5028    0.0103 C.3       1 <0>        -0.1286
      2 C2          0.0021   -0.0041    0.0020 C.ar      1 <0>        -0.0500
      3 C3          0.0057   -0.6887   -1.1989 C.ar      1 <0>        -0.1199
      4 C4          0.0245   -2.0709   -1.2065 C.ar      1 <0>        -0.0868
      5 C5          0.0400   -2.7685   -0.0132 C.ar      1 <0>        -0.1468
      6 C6          0.0373   -2.0839    1.1877 C.ar      1 <0>        -0.0868
      7 C7          0.0229   -0.7016    1.1953 C.ar      1 <0>        -0.1199
      8 C8          0.0595   -4.2753   -0.0215 C.3       1 <0>         0.1229
      9 N1          1.4468   -4.7457   -0.0317 N.pl3     1 <0>        -0.6625
     10 C9          1.7145   -6.0893   -0.0405 C.cat     1 <0>         0.4881
     11 N2          0.7272   -6.9028   -0.0446 N.pl3     1 <0>        -0.6055
     12 C10         0.8723   -8.3548   -0.0436 C.3       1 <0>         0.0413
     13 C11         2.2941   -8.7408   -0.4574 C.3       1 <0>         0.0237
     14 N3          3.2442   -7.9441    0.3374 N.3       1 <0>        -0.6457
     15 C12         3.1518   -6.5273   -0.0509 C.3       1 <0>         0.1342
     16 C13         3.7318   -6.3453   -1.4563 C.3       1 <0>        -0.1233
     17 C14         5.1849   -6.8296   -1.4711 C.3       1 <0>         0.1318
     18 N4          5.9288   -6.1257   -0.4176 N.pl3     1 <0>        -0.9968
     19 C15         5.4082   -6.1577    0.9560 C.3       1 <0>         0.1304
     20 C16         3.9524   -5.6813    0.9429 C.3       1 <0>        -0.1341
     21 S1          7.3274   -5.3125   -0.7714 S.o2      1 <0>         2.6865
     22 O1          8.0712   -5.2388    0.4371 O.2       1 <0>        -0.9443
     23 O2          7.8515   -5.9012   -1.9538 O.2       1 <0>        -0.9439
     24 C17         6.8782   -3.6604   -1.1879 C.ar      1 <0>        -0.6702
     25 C18         6.5909   -3.3320   -2.4996 C.ar      1 <0>        -0.0313
     26 C19         6.2386   -2.0358   -2.8263 C.ar      1 <0>        -0.0959
     27 C20         6.1730   -1.0682   -1.8412 C.ar      1 <0>        -0.0647
     28 C21         6.4594   -1.3968   -0.5294 C.ar      1 <0>        -0.0959
     29 C22         6.8076   -2.6939   -0.2020 C.ar      1 <0>        -0.0321
     30 C23         6.3885   -0.3418    0.5444 C.3       1 <0>        -0.1205
     31 C24         5.9264   -1.6776   -4.2564 C.3       1 <0>        -0.1208
     32 H1          1.0042    1.8801    0.0026 H         1 <0>         0.0801
     33 H2         -0.5455    1.8639   -0.8728 H         1 <0>         0.0745
     34 H3         -0.5286    1.8543    0.9071 H         1 <0>         0.0747
     35 H4         -0.0064   -0.1436   -2.1312 H         1 <0>         0.1321
     36 H5          0.0266   -2.6057   -2.1448 H         1 <0>         0.1257
     37 H6          0.0491   -2.6289    2.1200 H         1 <0>         0.1262
     38 H7          0.0245   -0.1667    2.1335 H         1 <0>         0.1326
     39 H8         -0.4447   -4.6501    0.8693 H         1 <0>         0.1001
     40 H9         -0.4546   -4.6404   -0.9106 H         1 <0>         0.0997
     41 H10         2.1759   -4.1059   -0.0323 H         1 <0>         0.4380
     42 H11         0.6705   -8.7375    0.9568 H         1 <0>         0.1149
     43 H12         0.1608   -8.7897   -0.7455 H         1 <0>         0.1272
     44 H13         2.4559   -9.8016   -0.2663 H         1 <0>         0.1322
     45 H14         2.4368   -8.5307   -1.5174 H         1 <0>         0.1048
     46 H15         3.0783   -8.0636    1.3255 H         1 <0>         0.3651
     47 H16         3.1473   -6.9268   -2.1693 H         1 <0>         0.0920
     48 H17         3.6969   -5.2910   -1.7306 H         1 <0>         0.0872
     49 H18         5.2142   -7.9031   -1.2841 H         1 <0>         0.0995
     50 H19         5.6324   -6.6133   -2.4412 H         1 <0>         0.1026
     51 H20         5.4559   -7.1762    1.3412 H         1 <0>         0.0975
     52 H21         6.0029   -5.4978    1.5876 H         1 <0>         0.1047
     53 H22         3.9149   -4.6342    0.6424 H         1 <0>         0.0869
     54 H23         3.5253   -5.7897    1.9399 H         1 <0>         0.0958
     55 H24         6.6421   -4.0880   -3.2691 H         1 <0>         0.1385
     56 H25         5.8984   -0.0554   -2.0966 H         1 <0>         0.1316
     57 H26         7.0278   -2.9515    0.8234 H         1 <0>         0.1387
     58 H27         5.3820   -0.3157    0.9621 H         1 <0>         0.0729
     59 H28         7.1031   -0.5774    1.3329 H         1 <0>         0.0740
     60 H29         6.6289    0.6306    0.1147 H         1 <0>         0.0730
     61 H30         4.8619   -1.8202   -4.4426 H         1 <0>         0.0731
     62 H31         6.1902   -0.6353   -4.4358 H         1 <0>         0.0732
     63 H32         6.5012   -2.3182   -4.9252 H         1 <0>         0.0741
     64 H33        -0.1696   -6.5331   -0.0484 H         1 <0>         0.4242
@<TRIPOS>BOND
     1    1    2 1
     2    1   32 1
     3    1   33 1
     4    1   34 1
     5    2    7 ar
     6    2    3 ar
     7    3    4 ar
     8    3   35 1
     9    4    5 ar
    10    4   36 1
    11    5    6 ar
    12    5    8 1
    13    6    7 ar
    14    6   37 1
    15    7   38 1
    16    8    9 1
    17    8   39 1
    18    8   40 1
    19    9   10 1
    20    9   41 1
    21   10   15 1
    22   10   11 2
    23   11   12 1
    24   11   64 1
    25   12   13 1
    26   12   42 1
    27   12   43 1
    28   13   14 1
    29   13   44 1
    30   13   45 1
    31   14   15 1
    32   14   46 1
    33   15   20 1
    34   15   16 1
    35   16   17 1
    36   16   47 1
    37   16   48 1
    38   17   18 1
    39   17   49 1
    40   17   50 1
    41   18   19 1
    42   18   21 1
    43   19   20 1
    44   19   51 1
    45   19   52 1
    46   20   53 1
    47   20   54 1
    48   21   22 2
    49   21   23 2
    50   21   24 1
    51   24   29 ar
    52   24   25 ar
    53   25   26 ar
    54   25   55 1
    55   26   27 ar
    56   26   31 1
    57   27   28 ar
    58   27   56 1
    59   28   29 ar
    60   28   30 1
    61   29   57 1
    62   30   58 1
    63   30   59 1
    64   30   60 1
    65   31   61 1
    66   31   62 1
    67   31   63 1
@<TRIPOS>MOLECULE
ZINC11081042
   46    47     0     0     0
SMALL
USER_CHARGES
(2,3,4-trifluorophenyl)carbamoylmethylcarbamoylmethyl 2-benzoylaminoacetate
@<TRIPOS>ATOM
      1 C1         -0.0632    4.2467   -0.0813 C.ar      1 <0>        -0.0900
      2 C2          1.1462    3.5749   -0.1033 C.ar      1 <0>        -0.1273
      3 C3          1.1726    2.1956   -0.1059 C.ar      1 <0>        -0.0568
      4 C4         -0.0243    1.4778   -0.0867 C.ar      1 <0>        -0.1387
      5 C5         -1.2410    2.1616   -0.0708 C.ar      1 <0>        -0.0850
      6 C6         -1.2532    3.5411   -0.0626 C.ar      1 <0>        -0.1271
      7 C7         -0.0035   -0.0005   -0.0892 C.2       1 <0>         0.5671
      8 O1          1.0574   -0.5934   -0.1081 O.2       1 <0>        -0.5284
      9 N1         -1.1610   -0.6908   -0.0706 N.am      1 <0>        -0.7231
     10 C8         -1.1404   -2.1556   -0.0732 C.3       1 <0>         0.1296
     11 C9         -2.5538   -2.6779   -0.0500 C.2       1 <0>         0.4654
     12 O2         -3.4830   -1.9058   -0.0331 O.2       1 <0>        -0.5015
     13 O3         -2.7804   -4.0009   -0.0481 O.3       1 <0>        -0.3248
     14 C10        -4.1667   -4.4322   -0.0253 C.3       1 <0>         0.0510
     15 C11        -4.2244   -5.9381   -0.0265 C.2       1 <0>         0.5214
     16 O4         -3.1982   -6.5843   -0.0449 O.2       1 <0>        -0.5087
     17 N2         -5.4164   -6.5668   -0.0073 N.am      1 <0>        -0.7175
     18 C12        -5.4725   -8.0308   -0.0085 C.3       1 <0>         0.1055
     19 C13        -6.9113   -8.4783    0.0152 C.2       1 <0>         0.5178
     20 O5         -7.8022   -7.6554    0.0316 O.2       1 <0>        -0.5099
     21 N3         -7.2081   -9.7930    0.0183 N.am      1 <0>        -0.6626
     22 C14        -8.5409  -10.2102    0.1346 C.ar      1 <0>         0.1306
     23 C15        -9.5566   -9.4608   -0.4430 C.ar      1 <0>        -0.0738
     24 C16       -10.8700   -9.8749   -0.3317 C.ar      1 <0>        -0.1122
     25 C17       -11.1767  -11.0320    0.3636 C.ar      1 <0>         0.0888
     26 C18       -10.1661  -11.7810    0.9466 C.ar      1 <0>         0.0542
     27 C19        -8.8480  -11.3718    0.8332 C.ar      1 <0>         0.0728
     28 F1         -7.8621  -12.1008    1.4004 F         1 <0>        -0.1142
     29 F2        -10.4673  -12.9095    1.6256 F         1 <0>        -0.1106
     30 F3        -12.4624  -11.4317    0.4746 F         1 <0>        -0.1156
     31 H1         -0.0784    5.3266   -0.0790 H         1 <0>         0.1294
     32 H2          2.0715    4.1316   -0.1182 H         1 <0>         0.1323
     33 H3          2.1172    1.6724   -0.1231 H         1 <0>         0.1381
     34 H4         -2.1706    1.6120   -0.0608 H         1 <0>         0.1271
     35 H5         -2.1939    4.0715   -0.0459 H         1 <0>         0.1309
     36 H6         -2.0076   -0.2177   -0.0556 H         1 <0>         0.4122
     37 H7         -0.6366   -2.5104   -0.9724 H         1 <0>         0.1202
     38 H8         -0.6065   -2.5130    0.8073 H         1 <0>         0.1201
     39 H9         -4.6511   -4.0508    0.8736 H         1 <0>         0.1095
     40 H10        -4.6813   -4.0481   -0.9061 H         1 <0>         0.1096
     41 H11        -6.2371   -6.0500    0.0074 H         1 <0>         0.4161
     42 H12        -4.9881   -8.4121   -0.9074 H         1 <0>         0.1123
     43 H13        -4.9579   -8.4148    0.8723 H         1 <0>         0.1122
     44 H14        -6.4991  -10.4505   -0.0600 H         1 <0>         0.4234
     45 H15        -9.3198   -8.5556   -0.9824 H         1 <0>         0.1685
     46 H16       -11.6590   -9.2930   -0.7847 H         1 <0>         0.1617
@<TRIPOS>BOND
     1    1    6 ar
     2    1    2 ar
     3    1   31 1
     4    2    3 ar
     5    2   32 1
     6    3    4 ar
     7    3   33 1
     8    4    5 ar
     9    4    7 1
    10    5    6 ar
    11    5   34 1
    12    6   35 1
    13    7    8 2
    14    7    9 am
    15    9   10 1
    16    9   36 1
    17   10   11 1
    18   10   37 1
    19   10   38 1
    20   11   12 2
    21   11   13 1
    22   13   14 1
    23   14   15 1
    24   14   39 1
    25   14   40 1
    26   15   16 2
    27   15   17 am
    28   17   18 1
    29   17   41 1
    30   18   19 1
    31   18   42 1
    32   18   43 1
    33   19   20 2
    34   19   21 am
    35   21   22 1
    36   21   44 1
    37   22   27 ar
    38   22   23 ar
    39   23   24 ar
    40   23   45 1
    41   24   25 ar
    42   24   46 1
    43   25   26 ar
    44   25   30 1
    45   26   27 ar
    46   26   29 1
    47   27   28 1
@<TRIPOS>MOLECULE
ZINC21227251
   53    54     0     0     0
SMALL
USER_CHARGES
[(1S)-2-[(4-carbamoylphenyl)amino]-1-methyl-2-oxo-ethyl] 1-[(E)-4,4,4-trifluoro-3-oxo-but-1-enyl]piperidine-4-carboxylate
@<TRIPOS>ATOM
      1 C1         -9.1972    5.1181   -3.5071 C.3       1 <0>        -0.1688
      2 C2         -7.7173    5.1060   -3.8952 C.3       1 <0>         0.0715
      3 H1         -7.5100    4.3375   -4.6545 H         1 <0>         0.1180
      4 C3         -7.3231    6.4646   -4.4147 C.2       1 <0>         0.5215
      5 O1         -6.4510    7.0972   -3.8578 O.2       1 <0>        -0.4964
      6 N1         -7.9397    6.9767   -5.4982 N.am      1 <0>        -0.6808
      7 C4         -7.5112    8.1897   -6.0360 C.ar      1 <0>         0.1749
      8 C5         -7.0502    9.1976   -5.1949 C.ar      1 <0>        -0.1319
      9 C6         -6.6219   10.3947   -5.7230 C.ar      1 <0>        -0.0657
     10 C7         -6.6605   10.6008   -7.1046 C.ar      1 <0>        -0.1529
     11 C8         -7.1291    9.5883   -7.9462 C.ar      1 <0>        -0.0394
     12 C9         -7.5510    8.3916   -7.4120 C.ar      1 <0>        -0.1513
     13 C10        -6.2070   11.8848   -7.6739 C.2       1 <0>         0.5641
     14 O2         -6.2408   12.0626   -8.8762 O.2       1 <0>        -0.5492
     15 N2         -5.7553   12.8603   -6.8609 N.am      1 <0>        -0.8740
     16 O3         -6.9139    4.7816   -2.7300 O.3       1 <0>        -0.3299
     17 C11        -6.6567    3.4828   -2.5095 C.2       1 <0>         0.4678
     18 O4         -7.0885    2.6447   -3.2652 O.2       1 <0>        -0.4986
     19 C12        -5.8293    3.0699   -1.3195 C.3       1 <0>        -0.0778
     20 C13        -5.6875    1.5462   -1.3011 C.3       1 <0>        -0.1234
     21 C14        -4.8751    1.1278   -0.0716 C.3       1 <0>         0.0957
     22 N3         -3.5971    1.8527   -0.0802 N.pl3     1 <0>        -0.5834
     23 C15        -3.6170    3.3184   -0.1812 C.3       1 <0>         0.1084
     24 C16        -4.4434    3.7118   -1.4151 C.3       1 <0>        -0.1318
     25 C17        -2.4162    1.1790    0.0097 C.2       1 <0>         0.2779
     26 C18        -2.4072   -0.1764    0.0057 C.2       1 <0>        -0.4215
     27 C19        -1.1885   -0.8692   -0.0102 C.2       1 <0>         0.3779
     28 O5         -0.1401   -0.2546   -0.0204 O.2       1 <0>        -0.4501
     29 C20        -1.1784   -2.3762   -0.0084 C.3       1 <0>         0.4237
     30 F1         -0.5055   -2.8367    1.1285 F         1 <0>        -0.1713
     31 F2         -2.4942   -2.8513    0.0041 F         1 <0>        -0.1741
     32 F3         -0.5261   -2.8396   -1.1560 F         1 <0>        -0.1717
     33 H2         -9.4849    4.1264   -3.1279 H         1 <0>         0.0807
     34 H3         -9.8057    5.3639   -4.3899 H         1 <0>         0.0847
     35 H4         -9.3649    5.8727   -2.7245 H         1 <0>         0.0784
     36 H5         -8.7810    6.4377   -5.9583 H         1 <0>         0.4402
     37 H6         -7.0245    9.0392   -4.1269 H         1 <0>         0.1447
     38 H7         -6.2603   11.1752   -5.0699 H         1 <0>         0.1303
     39 H8         -7.1599    9.7442   -9.0144 H         1 <0>         0.1415
     40 H9         -7.9129    7.6086   -8.0618 H         1 <0>         0.1352
     41 H10        -5.4173   13.8173   -7.2851 H         1 <0>         0.4271
     42 H11        -5.7247   12.6995   -5.7732 H         1 <0>         0.4180
     43 H12        -6.3355    3.4088   -0.4036 H         1 <0>         0.1173
     44 H13        -6.6855    1.0856   -1.2571 H         1 <0>         0.0938
     45 H14        -5.1707    1.2150   -2.2139 H         1 <0>         0.0841
     46 H15        -5.4377    1.3745    0.8409 H         1 <0>         0.0835
     47 H16        -4.6895    0.0441   -0.1062 H         1 <0>         0.1084
     48 H17        -4.0724    3.7423    0.7260 H         1 <0>         0.0851
     49 H18        -2.5878    3.6929   -0.2841 H         1 <0>         0.0991
     50 H19        -3.9376    3.3582   -2.3257 H         1 <0>         0.0796
     51 H20        -4.5481    4.8061   -1.4552 H         1 <0>         0.1014
     52 H21        -1.4701    1.7351    0.0855 H         1 <0>         0.1651
     53 H22        -3.3561   -0.7327    0.0149 H         1 <0>         0.1443
@<TRIPOS>BOND
     1    1    2 1
     2    1   33 1
     3    1   34 1
     4    1   35 1
     5    2    3 1
     6    2    4 1
     7    2   16 1
     8    4    5 2
     9    4    6 am
    10    6    7 1
    11    6   36 1
    12    7   12 ar
    13    7    8 ar
    14    8    9 ar
    15    8   37 1
    16    9   10 ar
    17    9   38 1
    18   10   11 ar
    19   10   13 1
    20   11   12 ar
    21   11   39 1
    22   12   40 1
    23   13   14 2
    24   13   15 am
    25   15   41 1
    26   15   42 1
    27   16   17 1
    28   17   18 2
    29   17   19 1
    30   19   24 1
    31   19   20 1
    32   19   43 1
    33   20   21 1
    34   20   44 1
    35   20   45 1
    36   21   22 1
    37   21   46 1
    38   21   47 1
    39   22   23 1
    40   22   25 1
    41   23   24 1
    42   23   48 1
    43   23   49 1
    44   24   50 1
    45   24   51 1
    46   25   26 2
    47   25   52 1
    48   26   27 1
    49   26   53 1
    50   27   28 2
    51   27   29 1
    52   29   30 1
    53   29   31 1
    54   29   32 1
@<TRIPOS>MOLECULE
ZINC13593165
   60    62     0     0     0
SMALL
USER_CHARGES

@<TRIPOS>ATOM
      1 C1          1.3355   -0.3596   -0.8706 C.3       1 <0>        -0.1489
      2 C2          0.3205   -0.1809    0.2602 C.3       1 <0>        -0.0958
      3 C3         -0.9318   -1.0059   -0.0435 C.3       1 <0>        -0.1548
      4 C4          0.9363   -0.6551    1.5781 C.3       1 <0>        -0.1204
      5 C5         -0.0310   -0.3636    2.7271 C.3       1 <0>         0.1268
      6 H1         -1.0035   -0.8022    2.5034 H         1 <0>         0.1216
      7 C6          0.5082   -0.9608    4.0014 C.2       1 <0>         0.5045
      8 O1          0.7490   -0.2463    4.9514 O.2       1 <0>        -0.5298
      9 N1          0.7227   -2.2887    4.0853 N.am      1 <0>        -0.8534
     10 N2         -0.1743    1.0853    2.8891 N.am      1 <0>        -0.7058
     11 C7         -1.2906    1.5938    3.4475 C.2       1 <0>         0.5729
     12 O2         -2.1787    0.8500    3.8167 O.2       1 <0>        -0.5353
     13 C8         -1.4350    3.0536    3.6108 C.ar      1 <0>        -0.1738
     14 C9         -0.4180    3.9105    3.1819 C.ar      1 <0>        -0.0402
     15 C10        -0.5567    5.2719    3.3355 C.ar      1 <0>        -0.2203
     16 C11        -1.7063    5.7939    3.9169 C.ar      1 <0>         0.1612
     17 C12        -2.7202    4.9450    4.3449 C.ar      1 <0>        -0.1601
     18 C13        -2.5916    3.5828    4.1895 C.ar      1 <0>        -0.0155
     19 O3         -1.8388    7.1362    4.0674 O.3       1 <0>        -0.3024
     20 C14        -0.7612    7.9508    3.6015 C.3       1 <0>         0.0848
     21 C15         0.3241    8.0251    4.6779 C.3       1 <0>        -0.1616
     22 C16         1.4927    8.8705    4.1617 C.3       1 <0>         0.1147
     23 N3          0.9774   10.1780    3.7331 N.am      1 <0>        -0.6135
     24 C17        -0.1295   10.2192    2.7677 C.3       1 <0>         0.1112
     25 C18        -1.2799    9.3586    3.2996 C.3       1 <0>        -0.1323
     26 C19         1.5096   11.3179    4.2166 C.2       1 <0>         0.5475
     27 O4          2.4227   11.2706    5.0134 O.2       1 <0>        -0.5356
     28 C20         0.9700   12.6513    3.7673 C.3       1 <0>        -0.2008
     29 C21         1.8761   13.5224    2.8950 C.3       1 <0>        -0.1503
     30 C22         1.6164   13.9085    4.3525 C.3       1 <0>        -0.1464
     31 H2          1.6696   -1.3968   -0.8984 H         1 <0>         0.0568
     32 H3          0.8691   -0.1025   -1.8216 H         1 <0>         0.0585
     33 H4          2.1911    0.2932   -0.6973 H         1 <0>         0.0554
     34 H5          0.0506    0.8719    0.3432 H         1 <0>         0.0748
     35 H6         -0.6620   -2.0587   -0.1266 H         1 <0>         0.0579
     36 H7         -1.6549   -0.8786    0.7620 H         1 <0>         0.0576
     37 H8         -1.3705   -0.6681   -0.9824 H         1 <0>         0.0587
     38 H9          1.1257   -1.7272    1.5256 H         1 <0>         0.0864
     39 H10         1.8749   -0.1284    1.7508 H         1 <0>         0.0775
     40 H11         0.5301   -2.8601    3.3255 H         1 <0>         0.4012
     41 H12         1.0698   -2.6730    4.9055 H         1 <0>         0.4035
     42 H13         0.5342    1.6787    2.5946 H         1 <0>         0.4029
     43 H14         0.4758    3.5055    2.7307 H         1 <0>         0.1274
     44 H15         0.2289    5.9348    3.0043 H         1 <0>         0.1359
     45 H16        -3.6119    5.3545    4.7961 H         1 <0>         0.1394
     46 H17        -3.3817    2.9240    4.5185 H         1 <0>         0.1439
     47 H18        -0.3430    7.5155    2.6939 H         1 <0>         0.0799
     48 H19        -0.0867    8.4831    5.5777 H         1 <0>         0.0819
     49 H20         0.6766    7.0199    4.9092 H         1 <0>         0.0854
     50 H21         2.2234    9.0091    4.9585 H         1 <0>         0.1010
     51 H22         1.9619    8.3677    3.3161 H         1 <0>         0.0714
     52 H23        -0.4691   11.2476    2.6448 H         1 <0>         0.0995
     53 H24         0.2075    9.8263    1.8085 H         1 <0>         0.0762
     54 H25        -2.0691    9.3026    2.5498 H         1 <0>         0.0903
     55 H26        -1.6755    9.8041    4.2124 H         1 <0>         0.0824
     56 H27        -0.1013   12.6822    3.5686 H         1 <0>         0.1263
     57 H28         2.8626   13.1311    2.6461 H         1 <0>         0.0997
     58 H29         1.4011   14.1265    2.1220 H         1 <0>         0.1065
     59 H30         0.9705   14.7666    4.5384 H         1 <0>         0.1052
     60 H31         2.4320   13.7712    5.0625 H         1 <0>         0.1085
@<TRIPOS>BOND
     1    1    2 1
     2    1   31 1
     3    1   32 1
     4    1   33 1
     5    2    3 1
     6    2    4 1
     7    2   34 1
     8    3   35 1
     9    3   36 1
    10    3   37 1
    11    4    5 1
    12    4   38 1
    13    4   39 1
    14    5    6 1
    15    5    7 1
    16    5   10 1
    17    7    8 2
    18    7    9 am
    19    9   40 1
    20    9   41 1
    21   10   11 am
    22   10   42 1
    23   11   12 2
    24   11   13 1
    25   13   18 ar
    26   13   14 ar
    27   14   15 ar
    28   14   43 1
    29   15   16 ar
    30   15   44 1
    31   16   17 ar
    32   16   19 1
    33   17   18 ar
    34   17   45 1
    35   18   46 1
    36   19   20 1
    37   20   25 1
    38   20   21 1
    39   20   47 1
    40   21   22 1
    41   21   48 1
    42   21   49 1
    43   22   23 1
    44   22   50 1
    45   22   51 1
    46   23   24 1
    47   23   26 am
    48   24   25 1
    49   24   52 1
    50   24   53 1
    51   25   54 1
    52   25   55 1
    53   26   27 2
    54   26   28 1
    55   28   30 1
    56   28   29 1
    57   28   56 1
    58   29   30 1
    59   29   57 1
    60   29   58 1
    61   30   59 1
    62   30   60 1
@<TRIPOS>MOLECULE
ZINC41848240
   52    54     0     0     0
SMALL
USER_CHARGES

@<TRIPOS>ATOM
      1 C1          0.5748   -3.7518    3.3480 C.3       1 <0>        -0.1663
      2 C2          0.3658   -3.1104    1.9747 C.3       1 <0>         0.1147
      3 N1          1.0781   -3.8891    0.9586 N.am      1 <0>        -0.7290
      4 C3          1.0361   -3.5090   -0.3338 C.2       1 <0>         0.5142
      5 O1          0.4085   -2.5223   -0.6555 O.2       1 <0>        -0.5131
      6 C4          1.7688   -4.3101   -1.3790 C.3       1 <0>         0.0403
      7 O2          1.5736   -3.7110   -2.6616 O.3       1 <0>        -0.2879
      8 C5          2.1726   -4.3148   -3.7224 C.ar      1 <0>         0.1204
      9 C6          2.9272   -5.4633   -3.5312 C.ar      1 <0>        -0.1902
     10 C7          3.5354   -6.0773   -4.6078 C.ar      1 <0>        -0.0758
     11 C8          3.3916   -5.5449   -5.8828 C.ar      1 <0>         0.1009
     12 C9          2.6358   -4.3950   -6.0733 C.ar      1 <0>        -0.0943
     13 C10         2.0240   -3.7853   -4.9962 C.ar      1 <0>        -0.1255
     14 N2          4.0077   -6.1660   -6.9741 N.am      1 <0>        -0.6395
     15 C11         4.1456   -7.5065   -6.9970 C.2       1 <0>         0.5083
     16 O3          3.6512   -8.1826   -6.1184 O.2       1 <0>        -0.4987
     17 C12         4.9065   -8.1601   -8.1033 C.2       1 <0>         0.5122
     18 O4          5.4008   -7.4842   -8.9818 O.2       1 <0>        -0.5140
     19 N3          5.0444   -9.5006   -8.1262 N.am      1 <0>        -0.6948
     20 C13         5.7908  -10.1417   -9.2115 C.3       1 <0>         0.1232
     21 C14         5.7967  -11.6571   -9.0007 C.3       1 <0>         0.0669
     22 H1          4.7789  -12.0467   -8.9810 H         1 <0>         0.0990
     23 C15         6.6315  -12.3599  -10.0973 C.3       1 <0>        -0.1004
     24 C16         7.2813  -13.4891   -9.3213 C.ar      1 <0>        -0.1739
     25 C17         7.9202  -14.6406   -9.7249 C.ar      1 <0>        -0.0691
     26 C18         8.4232  -15.5190   -8.7818 C.ar      1 <0>        -0.1456
     27 C19         8.2816  -15.2359   -7.4356 C.ar      1 <0>        -0.0841
     28 C20         7.6448  -14.0819   -7.0292 C.ar      1 <0>        -0.1355
     29 C21         7.1392  -13.1904   -7.9724 C.ar      1 <0>         0.1029
     30 O5          6.4970  -12.0006   -7.7929 O.3       1 <0>        -0.2983
     31 H2          0.1894   -4.7713    3.3353 H         1 <0>         0.0631
     32 H3          1.6390   -3.7686    3.5830 H         1 <0>         0.0631
     33 H4          0.0448   -3.1724    4.1040 H         1 <0>         0.0772
     34 H5         -0.6984   -3.0937    1.7397 H         1 <0>         0.0704
     35 H6          0.7512   -2.0909    1.9874 H         1 <0>         0.0704
     36 H7          1.5800   -4.6783    1.2159 H         1 <0>         0.4026
     37 H8          2.8330   -4.3268   -1.1440 H         1 <0>         0.0950
     38 H9          1.3834   -5.3296   -1.3917 H         1 <0>         0.0952
     39 H10         3.0392   -5.8768   -2.5398 H         1 <0>         0.1334
     40 H11         4.1231   -6.9711   -4.4588 H         1 <0>         0.1388
     41 H12         2.5237   -3.9802   -7.0641 H         1 <0>         0.1383
     42 H13         1.4330   -2.8936   -5.1447 H         1 <0>         0.1409
     43 H14         4.3358   -5.6320   -7.7144 H         1 <0>         0.4237
     44 H15         4.6493  -10.0408   -7.4241 H         1 <0>         0.4187
     45 H16         5.3169   -9.9094  -10.1652 H         1 <0>         0.0995
     46 H17         6.8160   -9.7715   -9.2156 H         1 <0>         0.0881
     47 H18         5.9885  -12.7492  -10.8867 H         1 <0>         0.0988
     48 H19         7.3835  -11.6853  -10.5067 H         1 <0>         0.0974
     49 H20         8.0283  -14.8579  -10.7773 H         1 <0>         0.1265
     50 H21         8.9249  -16.4224   -9.0957 H         1 <0>         0.1299
     51 H22         8.6714  -15.9223   -6.6985 H         1 <0>         0.1329
     52 H23         7.5379  -13.8687   -5.9759 H         1 <0>         0.1291
@<TRIPOS>BOND
     1    1    2 1
     2    1   31 1
     3    1   32 1
     4    1   33 1
     5    2    3 1
     6    2   34 1
     7    2   35 1
     8    3    4 am
     9    3   36 1
    10    4    5 2
    11    4    6 1
    12    6    7 1
    13    6   37 1
    14    6   38 1
    15    7    8 1
    16    8   13 ar
    17    8    9 ar
    18    9   10 ar
    19    9   39 1
    20   10   11 ar
    21   10   40 1
    22   11   12 ar
    23   11   14 1
    24   12   13 ar
    25   12   41 1
    26   13   42 1
    27   14   15 am
    28   14   43 1
    29   15   16 2
    30   15   17 1
    31   17   18 2
    32   17   19 am
    33   19   20 1
    34   19   44 1
    35   20   21 1
    36   20   45 1
    37   20   46 1
    38   21   22 1
    39   21   30 1
    40   21   23 1
    41   23   24 1
    42   23   47 1
    43   23   48 1
    44   24   29 ar
    45   24   25 ar
    46   25   26 ar
    47   25   49 1
    48   26   27 ar
    49   26   50 1
    50   27   28 ar
    51   27   51 1
    52   28   29 ar
    53   28   52 1
    54   29   30 1
@<TRIPOS>MOLECULE
ZINC66840025
   44    45     0     0     0
SMALL
USER_CHARGES

@<TRIPOS>ATOM
      1 C1         -0.0167    1.3780    0.0096 C.ar      1 <0>        -0.1287
      2 C2          1.1706    2.0866    0.0021 C.ar      1 <0>        -0.0858
      3 C3          2.3773    1.4137   -0.0131 C.ar      1 <0>        -0.1532
      4 C4          2.3974    0.0291   -0.0207 C.ar      1 <0>         0.1150
      5 C5          1.2080   -0.6793   -0.0132 C.ar      1 <0>        -0.1076
      6 C6          0.0021   -0.0041    0.0020 C.ar      1 <0>        -0.0764
      7 C7          1.2281   -2.1862   -0.0220 C.3       1 <0>        -0.0905
      8 C8          1.3724   -2.6949    1.3892 C.2       1 <0>         0.5176
      9 O1          1.4512   -1.9110    2.3113 O.2       1 <0>        -0.5268
     10 N1          1.4139   -4.0209    1.6266 N.am      1 <0>        -0.5248
     11 N2          1.5481   -4.4939    2.9385 N.am      1 <0>        -0.5229
     12 C9          1.5896   -5.8199    3.1759 C.2       1 <0>         0.5185
     13 O2          1.5109   -6.6038    2.2538 O.2       1 <0>        -0.5308
     14 C10         1.7340   -6.3286    4.5871 C.3       1 <0>        -0.1397
     15 C11         1.7544   -7.8585    4.5781 C.3       1 <0>         0.1275
     16 N3          1.8947   -8.3530    5.9500 N.pl3     1 <0>        -1.1163
     17 S1          1.5772   -9.9414    6.2940 S.o2      1 <0>         2.7001
     18 O3          1.8265  -10.1139    7.6823 O.2       1 <0>        -0.9499
     19 O4          0.3206  -10.2418    5.7026 O.2       1 <0>        -0.9409
     20 C12         2.7787  -10.9091    5.4426 C.ar      1 <0>        -0.7174
     21 C13         3.6941  -11.6594    6.1564 C.ar      1 <0>         0.0056
     22 C14         4.6367  -12.4186    5.4888 C.ar      1 <0>        -0.1489
     23 C15         4.6651  -12.4284    4.1064 C.ar      1 <0>        -0.0346
     24 C16         3.7507  -11.6794    3.3908 C.ar      1 <0>        -0.1709
     25 C17         2.8025  -10.9225    4.0585 C.ar      1 <0>         0.1915
     26 F1          1.9050  -10.1935    3.3598 F         1 <0>        -0.1162
     27 F2          3.5766   -0.6299   -0.0360 F         1 <0>        -0.1374
     28 H1         -0.9594    1.9048    0.0260 H         1 <0>         0.1320
     29 H2          1.1547    3.1665    0.0077 H         1 <0>         0.1343
     30 H3          3.3046    1.9675   -0.0193 H         1 <0>         0.1368
     31 H4         -0.9259   -0.5565    0.0083 H         1 <0>         0.1327
     32 H5          0.2975   -2.5595   -0.4494 H         1 <0>         0.1174
     33 H6          2.0689   -2.5348   -0.6216 H         1 <0>         0.1136
     34 H7          1.3509   -4.6479    0.8891 H         1 <0>         0.4336
     35 H8          1.6111   -3.8669    3.6760 H         1 <0>         0.4335
     36 H9          2.6646   -5.9553    5.0144 H         1 <0>         0.1107
     37 H10         0.8932   -5.9800    5.1867 H         1 <0>         0.1135
     38 H11         0.8237   -8.2317    4.1507 H         1 <0>         0.0979
     39 H12         2.5952   -8.2071    3.9784 H         1 <0>         0.0776
     40 H13         2.1735   -7.7500    6.6568 H         1 <0>         0.4218
     41 H14         3.6731  -11.6523    7.2362 H         1 <0>         0.1546
     42 H15         5.3518  -13.0043    6.0473 H         1 <0>         0.1426
     43 H16         5.4025  -13.0214    3.5859 H         1 <0>         0.1437
     44 H17         3.7733  -11.6869    2.3110 H         1 <0>         0.1476
@<TRIPOS>BOND
     1    1    6 ar
     2    1    2 ar
     3    1   28 1
     4    2    3 ar
     5    2   29 1
     6    3    4 ar
     7    3   30 1
     8    4    5 ar
     9    4   27 1
    10    5    6 ar
    11    5    7 1
    12    6   31 1
    13    7    8 1
    14    7   32 1
    15    7   33 1
    16    8    9 2
    17    8   10 am
    18   10   11 1
    19   10   34 1
    20   11   12 am
    21   11   35 1
    22   12   13 2
    23   12   14 1
    24   14   15 1
    25   14   36 1
    26   14   37 1
    27   15   16 1
    28   15   38 1
    29   15   39 1
    30   16   17 1
    31   16   40 1
    32   17   18 2
    33   17   19 2
    34   17   20 1
    35   20   25 ar
    36   20   21 ar
    37   21   22 ar
    38   21   41 1
    39   22   23 ar
    40   22   42 1
    41   23   24 ar
    42   23   43 1
    43   24   25 ar
    44   24   44 1
    45   25   26 1
@<TRIPOS>MOLECULE
ZINC36265931
   31    32     0     0     0
SMALL
USER_CHARGES

@<TRIPOS>ATOM
      1 C1         -0.0178    1.4608    0.0101 C.3       1 <0>         0.0601
      2 N1          0.0021   -0.0041    0.0020 N.pl3     1 <0>        -0.4348
      3 C2          0.0082   -0.7923   -1.1104 C.2       1 <0>        -0.0146
      4 C3          0.0273   -2.0811   -0.7139 C.2       1 <0>        -0.1168
      5 C4          0.0332   -2.0887    0.6950 C.2       1 <0>        -0.7488
      6 C5          0.0234   -0.8043    1.1057 C.2       1 <0>         0.1106
      7 S1          0.0568   -3.5145    1.7301 S.o2      1 <0>         2.7186
      8 O1         -0.4948   -3.1191    2.9785 O.2       1 <0>        -0.9558
      9 O2         -0.4822   -4.5822    0.9629 O.2       1 <0>        -0.9474
     10 N2          1.6452   -3.8888    2.0117 N.pl3     1 <0>        -1.1062
     11 C6          2.4936   -2.9623    2.7653 C.3       1 <0>         0.1412
     12 C7          3.6765   -2.4102    1.9524 C.3       1 <0>        -0.1692
     13 C8          4.4791   -3.6272    2.4419 C.3       1 <0>        -0.0087
     14 C9          3.5339   -3.6639    3.6544 C.3       1 <0>        -0.1563
     15 N3          5.8711   -3.3126    2.7903 N.4       1 <0>        -0.6305
     16 H1          1.0048    1.8381    0.0023 H         1 <0>         0.0820
     17 H2         -0.5450    1.8219   -0.8730 H         1 <0>         0.0939
     18 H3         -0.5280    1.8123    0.9069 H         1 <0>         0.0926
     19 H4         -0.0011   -0.4446   -2.1329 H         1 <0>         0.1742
     20 H5          0.0364   -2.9480   -1.3579 H         1 <0>         0.1529
     21 H6          0.0285   -0.4676    2.1319 H         1 <0>         0.1797
     22 H7          2.0138   -4.7215    1.6777 H         1 <0>         0.4194
     23 H8          1.9226   -2.1931    3.2853 H         1 <0>         0.1301
     24 H9          3.5027   -2.4059    0.8764 H         1 <0>         0.1114
     25 H10         4.0558   -1.4585    2.3247 H         1 <0>         0.1165
     26 H11         4.3907   -4.4983    1.7928 H         1 <0>         0.1644
     27 H12         3.8742   -3.0550    4.4920 H         1 <0>         0.1204
     28 H13         3.2449   -4.6718    3.9523 H         1 <0>         0.1130
     29 H14         5.8859   -2.6253    3.5289 H         1 <0>         0.4341
     30 H15         6.3376   -4.1513    3.1019 H         1 <0>         0.4375
     31 H16         6.3459   -2.9452    1.9794 H         1 <0>         0.4368
@<TRIPOS>BOND
     1    1    2 1
     2    1   16 1
     3    1   17 1
     4    1   18 1
     5    2    6 1
     6    2    3 1
     7    3    4 2
     8    3   19 1
     9    4    5 1
    10    4   20 1
    11    5    6 2
    12    5    7 1
    13    6   21 1
    14    7    8 2
    15    7    9 2
    16    7   10 1
    17   10   11 1
    18   10   22 1
    19   11   14 1
    20   11   12 1
    21   11   23 1
    22   12   13 1
    23   12   24 1
    24   12   25 1
    25   13   14 1
    26   13   15 1
    27   13   26 1
    28   14   27 1
    29   14   28 1
    30   15   29 1
    31   15   30 1
    32   15   31 1
@<TRIPOS>MOLECULE
ZINC37615513
   42    43     0     0     0
SMALL
USER_CHARGES

@<TRIPOS>ATOM
      1 C1          0.0350   -0.7635    1.3032 C.3       1 <0>        -0.1787
      2 C2          0.0021   -0.0041    0.0020 C.2       1 <0>         0.5154
      3 O1         -0.1141    1.2032    0.0073 O.2       1 <0>        -0.5357
      4 N1          0.1018   -0.6664   -1.1675 N.am      1 <0>        -0.6224
      5 C3          0.1973    0.0668   -2.4372 C.3       1 <0>         0.1118
      6 C4         -0.8932   -0.4435   -3.3845 C.3       1 <0>        -0.1420
      7 C5         -0.7713   -1.9625   -3.5251 C.3       1 <0>         0.1425
      8 C6         -0.9722   -2.6208   -2.1582 C.3       1 <0>        -0.1453
      9 C7          0.1231   -2.1352   -1.1966 C.3       1 <0>         0.1066
     10 N2         -1.7920   -2.4499   -4.4562 N.am      1 <0>        -0.7249
     11 C8         -1.5977   -3.6034   -5.1257 C.2       1 <0>         0.5055
     12 O2         -0.5779   -4.2379   -4.9573 O.2       1 <0>        -0.4646
     13 C9         -2.6476   -4.1048   -6.0835 C.3       1 <0>         0.0813
     14 C10        -2.4460   -3.4481   -7.4506 C.3       1 <0>        -0.1827
     15 C11        -2.5260   -5.6234   -6.2242 C.3       1 <0>        -0.1916
     16 C12        -1.9344   -6.1671   -7.5263 C.3       1 <0>        -0.1382
     17 C13        -3.4316   -6.3129   -7.2467 C.3       1 <0>        -0.1739
     18 N3         -3.9813   -3.7659   -5.5693 N.4       1 <0>        -0.6318
     19 H1         -0.9844   -0.9728    1.6276 H         1 <0>         0.0959
     20 H2          0.5714   -1.7019    1.1628 H         1 <0>         0.0830
     21 H3          0.5416   -0.1652    2.0605 H         1 <0>         0.0992
     22 H4          0.0545    1.1320   -2.2557 H         1 <0>         0.1044
     23 H5          1.1773   -0.1018   -2.8837 H         1 <0>         0.0751
     24 H6         -1.8736   -0.1931   -2.9791 H         1 <0>         0.0764
     25 H7         -0.7733    0.0232   -4.3622 H         1 <0>         0.0868
     26 H8          0.2181   -2.2136   -3.9072 H         1 <0>         0.1031
     27 H9         -1.9518   -2.3500   -1.7643 H         1 <0>         0.0735
     28 H10        -0.9085   -3.7039   -2.2631 H         1 <0>         0.0831
     29 H11         1.0971   -2.4797   -1.5439 H         1 <0>         0.0780
     30 H12        -0.0686   -2.5233   -0.1962 H         1 <0>         0.0998
     31 H13        -2.6076   -1.9424   -4.5909 H         1 <0>         0.3920
     32 H14        -1.4564   -3.6995   -7.8321 H         1 <0>         0.1196
     33 H15        -3.2054   -3.8107   -8.1433 H         1 <0>         0.1008
     34 H16        -2.5327   -2.3662   -7.3503 H         1 <0>         0.0909
     35 H17        -2.3020   -6.1643   -5.3048 H         1 <0>         0.1382
     36 H18        -1.6319   -5.4428   -8.2826 H         1 <0>         0.1139
     37 H19        -1.3209   -7.0658   -7.4637 H         1 <0>         0.1177
     38 H20        -3.8030   -7.3075   -7.0002 H         1 <0>         0.1195
     39 H21        -4.1140   -5.6845   -7.8191 H         1 <0>         0.1042
     40 H22        -4.0615   -2.7644   -5.4765 H         1 <0>         0.4307
     41 H23        -4.6843   -4.1016   -6.2106 H         1 <0>         0.4421
     42 H24        -4.1142   -4.1990   -4.6677 H         1 <0>         0.4408
@<TRIPOS>BOND
     1    1    2 1
     2    1   19 1
     3    1   20 1
     4    1   21 1
     5    2    3 2
     6    2    4 am
     7    4    9 1
     8    4    5 1
     9    5    6 1
    10    5   22 1
    11    5   23 1
    12    6    7 1
    13    6   24 1
    14    6   25 1
    15    7    8 1
    16    7   10 1
    17    7   26 1
    18    8    9 1
    19    8   27 1
    20    8   28 1
    21    9   29 1
    22    9   30 1
    23   10   11 am
    24   10   31 1
    25   11   12 2
    26   11   13 1
    27   13   14 1
    28   13   15 1
    29   13   18 1
    30   14   32 1
    31   14   33 1
    32   14   34 1
    33   15   17 1
    34   15   16 1
    35   15   35 1
    36   16   17 1
    37   16   36 1
    38   16   37 1
    39   17   38 1
    40   17   39 1
    41   18   40 1
    42   18   41 1
    43   18   42 1
@<TRIPOS>MOLECULE
ZINC44502007
   35    35     0     0     0
SMALL
USER_CHARGES

@<TRIPOS>ATOM
      1 C1         -0.0184    1.5028    0.0103 C.3       1 <0>        -0.1748
      2 C2          0.0021   -0.0041    0.0020 C.2       1 <0>         0.5161
      3 O1          1.0605   -0.5961   -0.0113 O.2       1 <0>        -0.5424
      4 N1         -1.1558   -0.6938    0.0094 N.am      1 <0>        -0.7265
      5 C3         -1.1360   -2.1586    0.0013 C.3       1 <0>         0.0992
      6 C4         -2.5498   -2.6802    0.0120 C.2       1 <0>         0.5150
      7 O2         -3.4822   -1.9047    0.0251 O.2       1 <0>        -0.5240
      8 N2         -2.7780   -4.0085    0.0071 N.am      1 <0>        -0.7315
      9 C5         -4.1524   -4.5156    0.0175 C.3       1 <0>         0.1267
     10 C6         -4.1317   -6.0454    0.0090 C.3       1 <0>        -0.1243
     11 H1         -3.5456   -6.3968   -0.8401 H         1 <0>         0.1042
     12 C7         -3.5043   -6.5555    1.3096 C.3       1 <0>        -0.1376
     13 C8         -3.5595   -8.0858    1.3256 C.3       1 <0>        -0.1472
     14 C9         -5.0119   -8.5400    1.1652 C.3       1 <0>        -0.0096
     15 N3         -5.5461   -8.0430   -0.1084 N.4       1 <0>        -0.5034
     16 C10        -5.5628   -6.5752   -0.1036 C.3       1 <0>        -0.0023
     17 H2          1.0042    1.8801    0.0026 H         1 <0>         0.0979
     18 H3         -0.5455    1.8639   -0.8728 H         1 <0>         0.0921
     19 H4         -0.5286    1.8543    0.9071 H         1 <0>         0.0921
     20 H5         -2.0023   -0.2203    0.0200 H         1 <0>         0.4139
     21 H6         -0.6258   -2.5101   -0.8955 H         1 <0>         0.1019
     22 H7         -0.6088   -2.5197    0.8844 H         1 <0>         0.1018
     23 H8         -2.0323   -4.6287   -0.0034 H         1 <0>         0.4065
     24 H9         -4.6626   -4.1641    0.9143 H         1 <0>         0.0818
     25 H10        -4.6796   -4.1545   -0.8656 H         1 <0>         0.0817
     26 H11        -2.4664   -6.2276    1.3667 H         1 <0>         0.0948
     27 H12        -4.0595   -6.1618    2.1610 H         1 <0>         0.0875
     28 H13        -2.9620   -8.4802    0.5037 H         1 <0>         0.0899
     29 H14        -3.1654   -8.4544    2.2726 H         1 <0>         0.1153
     30 H15        -5.0549   -9.6291    1.1764 H         1 <0>         0.1353
     31 H16        -5.6085   -8.1453    1.9877 H         1 <0>         0.1318
     32 H17        -4.9645   -8.3686   -0.8659 H         1 <0>         0.4287
     33 H18        -6.1483   -6.2224    0.7454 H         1 <0>         0.1359
     34 H19        -6.0118   -6.2138   -1.0288 H         1 <0>         0.1383
     35 H20        -6.4854   -8.3886   -0.2358 H         1 <0>         0.4352
@<TRIPOS>BOND
     1    1    2 1
     2    1   17 1
     3    1   18 1
     4    1   19 1
     5    2    3 2
     6    2    4 am
     7    4    5 1
     8    4   20 1
     9    5    6 1
    10    5   21 1
    11    5   22 1
    12    6    7 2
    13    6    8 am
    14    8    9 1
    15    8   23 1
    16    9   10 1
    17    9   24 1
    18    9   25 1
    19   10   11 1
    20   10   16 1
    21   10   12 1
    22   12   13 1
    23   12   26 1
    24   12   27 1
    25   13   14 1
    26   13   28 1
    27   13   29 1
    28   14   15 1
    29   14   30 1
    30   14   31 1
    31   15   16 1
    32   15   32 1
    33   15   35 1
    34   16   33 1
    35   16   34 1
@<TRIPOS>MOLECULE
ZINC55087732
   41    41     0     0     0
SMALL
USER_CHARGES

@<TRIPOS>ATOM
      1 C1         -0.2130    1.5055    0.1395 C.3       1 <0>        -0.1633
      2 C2          0.0018   -0.0032    0.0030 C.3       1 <0>         0.1223
      3 H1          0.5175   -0.2134   -0.9340 H         1 <0>         0.1171
      4 C3          0.8347   -0.4985    1.1570 C.2       1 <0>         0.5079
      5 O1          0.2953   -0.9653    2.1379 O.2       1 <0>        -0.5314
      6 N1          2.1791   -0.4228    1.0992 N.am      1 <0>        -0.6117
      7 C4          2.9924   -1.0080    2.1679 C.3       1 <0>         0.0787
      8 C5          2.8271    0.2448   -0.0325 C.3       1 <0>         0.0669
      9 N2         -1.2956   -0.6837    0.0096 N.am      1 <0>        -0.6906
     10 C6         -1.9960   -0.8103   -1.1349 C.2       1 <0>         0.5170
     11 O2         -1.5522   -0.3609   -2.1703 O.2       1 <0>        -0.5579
     12 C7         -3.3305   -1.5103   -1.1281 C.3       1 <0>        -0.1292
     13 H2         -3.2008   -2.5364   -0.7838 H         1 <0>         0.1257
     14 C8         -4.2877   -0.7743   -0.1885 C.3       1 <0>        -0.1120
     15 C9         -5.6426   -1.4850   -0.1815 C.3       1 <0>        -0.1285
     16 C10        -6.2223   -1.4915   -1.5974 C.3       1 <0>        -0.1208
     17 C11        -5.2651   -2.2276   -2.5370 C.3       1 <0>        -0.1415
     18 C12        -3.9102   -1.5169   -2.5440 C.3       1 <0>         0.0501
     19 H3         -4.0399   -0.4908   -2.8882 H         1 <0>         0.1486
     20 N3         -2.9912   -2.2236   -3.4461 N.4       1 <0>        -0.6373
     21 H4          0.7524    2.0029    0.2334 H         1 <0>         0.0806
     22 H5         -0.7305    1.8803   -0.7436 H         1 <0>         0.0785
     23 H6         -0.8139    1.7082    1.0261 H         1 <0>         0.0719
     24 H7          3.2224   -2.0450    1.9231 H         1 <0>         0.0614
     25 H8          3.9198   -0.4443    2.2689 H         1 <0>         0.0786
     26 H9          2.4402   -0.9703    3.1069 H         1 <0>         0.0823
     27 H10         2.4341    1.2567   -0.1310 H         1 <0>         0.0707
     28 H11         3.9028    0.2879    0.1385 H         1 <0>         0.0893
     29 H12         2.6267   -0.3135   -0.9470 H         1 <0>         0.0644
     30 H13        -1.6505   -1.0431    0.8377 H         1 <0>         0.4195
     31 H14        -3.8747   -0.7696    0.8203 H         1 <0>         0.0907
     32 H15        -4.4174    0.2518   -0.5327 H         1 <0>         0.0843
     33 H16        -5.5129   -2.5110    0.1627 H         1 <0>         0.0753
     34 H17        -6.3245   -0.9606    0.4879 H         1 <0>         0.0870
     35 H18        -7.1876   -1.9978   -1.5925 H         1 <0>         0.0895
     36 H19        -6.3520   -0.4655   -1.9417 H         1 <0>         0.0777
     37 H20        -5.1354   -3.2536   -2.1928 H         1 <0>         0.0901
     38 H21        -5.6781   -2.2322   -3.5458 H         1 <0>         0.0952
     39 H22        -2.8711   -3.1734   -3.1274 H         1 <0>         0.4272
     40 H23        -3.3735   -2.2279   -4.3799 H         1 <0>         0.4358
     41 H24        -2.0976   -1.7549   -3.4507 H         1 <0>         0.4398
@<TRIPOS>BOND
     1    1    2 1
     2    1   21 1
     3    1   22 1
     4    1   23 1
     5    2    3 1
     6    2    4 1
     7    2    9 1
     8    4    5 2
     9    4    6 am
    10    6    7 1
    11    6    8 1
    12    7   24 1
    13    7   25 1
    14    7   26 1
    15    8   27 1
    16    8   28 1
    17    8   29 1
    18    9   10 am
    19    9   30 1
    20   10   11 2
    21   10   12 1
    22   12   13 1
    23   12   18 1
    24   12   14 1
    25   14   15 1
    26   14   31 1
    27   14   32 1
    28   15   16 1
    29   15   33 1
    30   15   34 1
    31   16   17 1
    32   16   35 1
    33   16   36 1
    34   17   18 1
    35   17   37 1
    36   17   38 1
    37   18   19 1
    38   18   20 1
    39   20   39 1
    40   20   40 1
    41   20   41 1
@<TRIPOS>MOLECULE
ZINC62889949
   36    37     0     0     0
SMALL
USER_CHARGES

@<TRIPOS>ATOM
      1 C1         -0.0187    1.5258    0.0104 C.3       1 <0>        -0.1566
      2 C2          0.0021   -0.0041    0.0020 C.3       1 <0>        -0.0940
      3 C3          0.8145   -0.5230   -1.2065 C.3       1 <0>        -0.1426
      4 C4          2.2101   -0.7994   -0.5929 C.3       1 <0>        -0.0005
      5 N1          1.8889   -1.3337    0.7552 N.4       1 <0>        -0.5151
      6 C5          0.7433   -0.5354    1.2429 C.3       1 <0>         0.0017
      7 C6         -1.4038   -0.5452   -0.0390 C.2       1 <0>         0.5462
      8 O1         -1.8013   -1.2687    0.8495 O.2       1 <0>        -0.5159
      9 N2         -2.2195   -0.2251   -1.0631 N.am      1 <0>        -0.5914
     10 C7         -1.8655    0.6348   -2.2071 C.3       1 <0>         0.0875
     11 C8         -2.8278    0.2020   -3.3412 C.3       1 <0>        -0.1361
     12 C9         -4.1318   -0.0845   -2.5509 C.3       1 <0>        -0.1272
     13 C10        -3.6076   -0.6807   -1.2276 C.3       1 <0>         0.1152
     14 H1         -4.2157   -0.3244   -0.3961 H         1 <0>         0.1102
     15 C11        -3.6491   -2.1859   -1.2886 C.2       1 <0>         0.5159
     16 O2         -2.6218   -2.8248   -1.2035 O.2       1 <0>        -0.5340
     17 N3         -4.8280   -2.8220   -1.4376 N.am      1 <0>        -0.8497
     18 H2          1.0039    1.9031    0.0027 H         1 <0>         0.0804
     19 H3         -0.5459    1.8868   -0.8726 H         1 <0>         0.0866
     20 H4         -0.5289    1.8773    0.9072 H         1 <0>         0.0793
     21 H5          0.3774   -1.4409   -1.5996 H         1 <0>         0.1077
     22 H6          0.8788    0.2385   -1.9837 H         1 <0>         0.1266
     23 H7          2.7494   -1.5410   -1.1822 H         1 <0>         0.1425
     24 H8          2.7852    0.1232   -0.5141 H         1 <0>         0.1402
     25 H9          1.6323   -2.3075    0.6915 H         1 <0>         0.4354
     26 H10         1.1018    0.2984    1.8465 H         1 <0>         0.1427
     27 H11         0.0765   -1.1645    1.8326 H         1 <0>         0.1547
     28 H12        -2.0225    1.6838   -1.9560 H         1 <0>         0.0853
     29 H13        -0.8301    0.4655   -2.5028 H         1 <0>         0.0839
     30 H14        -2.9749    1.0096   -4.0582 H         1 <0>         0.0991
     31 H15        -2.4662   -0.6983   -3.8380 H         1 <0>         0.0817
     32 H16        -4.6840    0.8378   -2.3706 H         1 <0>         0.0979
     33 H17        -4.7515   -0.8093   -3.0789 H         1 <0>         0.0938
     34 H18        -5.6496   -2.3110   -1.5057 H         1 <0>         0.4048
     35 H19        -4.8547   -3.7908   -1.4769 H         1 <0>         0.4082
     36 H20         2.6795   -1.2204    1.3718 H         1 <0>         0.4357
@<TRIPOS>BOND
     1    1    2 1
     2    1   18 1
     3    1   19 1
     4    1   20 1
     5    2    6 1
     6    2    3 1
     7    2    7 1
     8    3    4 1
     9    3   21 1
    10    3   22 1
    11    4    5 1
    12    4   23 1
    13    4   24 1
    14    5    6 1
    15    5   25 1
    16    5   36 1
    17    6   26 1
    18    6   27 1
    19    7    8 2
    20    7    9 am
    21    9   13 1
    22    9   10 1
    23   10   11 1
    24   10   28 1
    25   10   29 1
    26   11   12 1
    27   11   30 1
    28   11   31 1
    29   12   13 1
    30   12   32 1
    31   12   33 1
    32   13   14 1
    33   13   15 1
    34   15   16 2
    35   15   17 am
    36   17   34 1
    37   17   35 1
@<TRIPOS>MOLECULE
ZINC36233011
   30    32     0     0     0
SMALL
USER_CHARGES

@<TRIPOS>ATOM
      1 C1         -0.0165    1.3660    0.0096 C.2       1 <0>         0.1369
      2 C2          1.2643    1.7982   -0.0004 C.2       1 <0>        -0.0744
      3 N1          2.0839    0.6654   -0.0143 N.am      1 <0>        -0.6339
      4 H1          3.0539    0.6605   -0.0236 H         1 <0>         0.4336
      5 C3          1.2829   -0.4182   -0.0124 C.2       1 <0>         0.6618
      6 O1          1.6551   -1.5772   -0.0226 O.2       1 <0>        -0.5447
      7 N2          0.0021   -0.0041    0.0020 N.am      1 <0>        -0.6208
      8 H2         -0.7783   -0.5801    0.0064 H         1 <0>         0.4462
      9 C4          1.7109    3.1946    0.0021 C.2       1 <0>         0.6001
     10 O2          0.8923    4.0953    0.0141 O.2       1 <0>        -0.4514
     11 N3          3.0278    3.4810   -0.0088 N.am      1 <0>        -0.6191
     12 C5          3.4508    4.8038   -0.0064 C.2       1 <0>         0.3086
     13 N4          2.7176    5.8968    0.0115 N.2       1 <0>        -0.5245
     14 C6          3.2645    7.1057    0.0117 C.2       1 <0>         0.1351
     15 C7          4.6243    7.1215   -0.0097 C.2       1 <0>        -0.3533
     16 S1          5.0281    5.3992   -0.0183 S.3       1 <0>         0.2308
     17 C8          5.5052    8.3227   -0.0205 C.3       1 <0>         0.1151
     18 N5          4.6823    9.4953   -0.3763 N.4       1 <0>        -0.5042
     19 C9          3.4786    9.5244    0.4646 C.3       1 <0>        -0.0030
     20 C10         2.5018    8.4238    0.0376 C.3       1 <0>        -0.0693
     21 H3         -0.8980    1.9898    0.0253 H         1 <0>         0.2054
     22 H4          3.6802    2.7633   -0.0183 H         1 <0>         0.4300
     23 H5          5.9427    8.4666    0.9675 H         1 <0>         0.1448
     24 H6          6.2968    8.1915   -0.7582 H         1 <0>         0.1448
     25 H7          5.2165   10.3383   -0.2277 H         1 <0>         0.4404
     26 H8          3.7623    9.3705    1.5058 H         1 <0>         0.1363
     27 H9          2.9933   10.4954    0.3659 H         1 <0>         0.1471
     28 H10         2.1104    8.6431   -0.9557 H         1 <0>         0.1142
     29 H11         1.6813    8.3612    0.7525 H         1 <0>         0.1344
     30 H12         4.4130    9.4349   -1.3468 H         1 <0>         0.4331
@<TRIPOS>BOND
     1    1    7 1
     2    1    2 2
     3    1   21 1
     4    2    3 1
     5    2    9 1
     6    3    4 1
     7    3    5 am
     8    5    6 2
     9    5    7 am
    10    7    8 1
    11    9   10 2
    12    9   11 am
    13   11   12 1
    14   11   22 1
    15   12   16 1
    16   12   13 2
    17   13   14 1
    18   14   20 1
    19   14   15 2
    20   15   16 1
    21   15   17 1
    22   17   18 1
    23   17   23 1
    24   17   24 1
    25   18   19 1
    26   18   25 1
    27   18   30 1
    28   19   20 1
    29   19   26 1
    30   19   27 1
    31   20   28 1
    32   20   29 1
@<TRIPOS>MOLECULE
ZINC37820854
   41    42     0     0     0
SMALL
USER_CHARGES

@<TRIPOS>ATOM
      1 C1         -0.0189    1.5389    0.0105 C.3       1 <0>        -0.1399
      2 C2          1.4877    1.9090   -0.0019 C.3       1 <0>        -0.1321
      3 C3          2.0771    0.7912   -0.8979 C.3       1 <0>         0.0006
      4 H1          1.9393    1.0367   -1.9509 H         1 <0>         0.1654
      5 N1          1.3058   -0.4202   -0.5467 N.4       1 <0>        -0.5027
      6 C4          0.0021   -0.0041    0.0020 C.3       1 <0>        -0.0088
      7 C5          3.5395    0.5914   -0.5937 C.2       1 <0>         0.5073
      8 O1          3.8909   -0.3245    0.1194 O.2       1 <0>        -0.5249
      9 N2          4.4568    1.4305   -1.1143 N.am      1 <0>        -0.5822
     10 C6          4.0460    2.5481   -1.9749 C.3       1 <0>         0.0923
     11 C7          4.8279    2.4710   -3.2900 C.3       1 <0>        -0.1372
     12 C8          6.3272    2.4302   -2.9858 C.3       1 <0>        -0.1226
     13 C9          6.6479    1.1827   -2.1593 C.3       1 <0>        -0.1122
     14 H2          6.3446    0.2929   -2.7110 H         1 <0>         0.0849
     15 C10         5.8862    1.2486   -0.8268 C.3       1 <0>         0.1147
     16 C11         8.1519    1.1251   -1.8843 C.3       1 <0>         0.1429
     17 N3          8.8729    0.9488   -3.1473 N.am      1 <0>        -0.7471
     18 C12        10.2184    0.8708   -3.1500 C.2       1 <0>         0.7051
     19 O2         10.8338    0.9467   -2.1041 O.2       1 <0>        -0.5886
     20 N4         10.8817    0.7086   -4.3120 N.am      1 <0>        -0.8655
     21 H3         -0.5001    1.9129    0.9142 H         1 <0>         0.1199
     22 H4         -0.5172    1.9225   -0.8798 H         1 <0>         0.1055
     23 H5          1.6450    2.8909   -0.4483 H         1 <0>         0.1256
     24 H6          1.9085    1.8666    1.0027 H         1 <0>         0.1066
     25 H7          1.1629   -0.9829   -1.3720 H         1 <0>         0.4346
     26 H8         -0.1103   -0.3820    1.0182 H         1 <0>         0.1373
     27 H9         -0.8031   -0.3824   -0.6278 H         1 <0>         0.1399
     28 H10         2.9778    2.4777   -2.1802 H         1 <0>         0.0848
     29 H11         4.2627    3.4926   -1.4757 H         1 <0>         0.0915
     30 H12         4.5417    1.5691   -3.8311 H         1 <0>         0.0709
     31 H13         4.6038    3.3473   -3.8984 H         1 <0>         0.0900
     32 H14         6.8867    2.4001   -3.9207 H         1 <0>         0.0762
     33 H15         6.6079    3.3206   -2.4232 H         1 <0>         0.0763
     34 H16         6.2499    2.0892   -0.2360 H         1 <0>         0.0895
     35 H17         6.0325    0.3204   -0.2744 H         1 <0>         0.1055
     36 H18         8.4704    2.0537   -1.4106 H         1 <0>         0.0739
     37 H19         8.3683    0.2867   -1.2222 H         1 <0>         0.0728
     38 H20         8.3819    0.8882   -3.9817 H         1 <0>         0.3960
     39 H21        10.3907    0.6480   -5.1463 H         1 <0>         0.3973
     40 H22        11.8501    0.6524   -4.3139 H         1 <0>         0.4190
     41 H23         1.8099   -0.9552    0.1445 H         1 <0>         0.4376
@<TRIPOS>BOND
     1    1    6 1
     2    1    2 1
     3    1   21 1
     4    1   22 1
     5    2    3 1
     6    2   23 1
     7    2   24 1
     8    3    4 1
     9    3    5 1
    10    3    7 1
    11    5    6 1
    12    5   25 1
    13    5   41 1
    14    6   26 1
    15    6   27 1
    16    7    8 2
    17    7    9 am
    18    9   15 1
    19    9   10 1
    20   10   11 1
    21   10   28 1
    22   10   29 1
    23   11   12 1
    24   11   30 1
    25   11   31 1
    26   12   13 1
    27   12   32 1
    28   12   33 1
    29   13   14 1
    30   13   15 1
    31   13   16 1
    32   15   34 1
    33   15   35 1
    34   16   17 1
    35   16   36 1
    36   16   37 1
    37   17   18 am
    38   17   38 1
    39   18   19 2
    40   18   20 am
    41   20   39 1
    42   20   40 1
@<TRIPOS>MOLECULE
ZINC40508435
   45    46     0     0     0
SMALL
USER_CHARGES

@<TRIPOS>ATOM
      1 C1         -0.0469    1.3940   -0.0678 C.3       1 <0>        -0.1396
      2 C2          1.4238    1.8658   -0.1325 C.3       1 <0>        -0.1312
      3 C3          2.1904    0.7049    0.5496 C.3       1 <0>         0.0034
      4 H1          2.1370    0.7938    1.6346 H         1 <0>         0.1659
      5 N1          1.4608   -0.5029    0.0859 N.4       1 <0>        -0.3806
      6 C4          0.0281   -0.1357    0.0924 C.3       1 <0>        -0.0134
      7 C5          1.7007   -1.6235    1.0050 C.3       1 <0>         0.0071
      8 C6          1.0457   -2.8891    0.4480 C.3       1 <0>        -0.1676
      9 C7          1.2918   -4.0387    1.3908 C.2       1 <0>         0.5275
     10 O1          1.9281   -3.8631    2.4077 O.2       1 <0>        -0.4569
     11 N2          0.8046   -5.2620    1.1035 N.am      1 <0>        -0.6870
     12 C8          1.0246   -6.2901    1.9467 C.2       1 <0>         0.6956
     13 O2          1.6625   -6.1141    2.9662 O.2       1 <0>        -0.5257
     14 N3          0.5374   -7.5134    1.6595 N.am      1 <0>        -0.8507
     15 C9          3.6254    0.6728    0.0903 C.2       1 <0>         0.5094
     16 O3          3.9648   -0.0947   -0.7853 O.2       1 <0>        -0.5269
     17 N4          4.5315    1.4969    0.6526 N.am      1 <0>        -0.5858
     18 C10         4.1688    2.3524    1.7927 C.3       1 <0>         0.0968
     19 C11         4.5914    3.7908    1.4757 C.3       1 <0>         0.0405
     20 N5          6.0146    3.8109    1.1122 N.3       1 <0>        -0.6897
     21 C12         6.2634    3.0341   -0.1096 C.3       1 <0>         0.0410
     22 C13         5.9110    1.5601    0.1463 C.3       1 <0>         0.1119
     23 H2         -0.5499    1.8400    0.7902 H         1 <0>         0.1110
     24 H3         -0.5682    1.6528   -0.9895 H         1 <0>         0.1123
     25 H4          1.7455    1.9851   -1.1672 H         1 <0>         0.1048
     26 H5          1.5559    2.7943    0.4230 H         1 <0>         0.1241
     27 H6         -0.4271   -0.4329    1.0372 H         1 <0>         0.1374
     28 H7         -0.4835   -0.6216   -0.7384 H         1 <0>         0.1396
     29 H8          2.7736   -1.7851    1.1086 H         1 <0>         0.1393
     30 H9          1.2723   -1.3917    1.9801 H         1 <0>         0.1429
     31 H10        -0.0272   -2.7275    0.3444 H         1 <0>         0.1246
     32 H11         1.4741   -3.1208   -0.5271 H         1 <0>         0.1265
     33 H12         0.2954   -5.4025    0.2899 H         1 <0>         0.4146
     34 H13         0.0283   -7.6539    0.8458 H         1 <0>         0.4028
     35 H14         0.6958   -8.2534    2.2663 H         1 <0>         0.4269
     36 H15         3.0911    2.3138    1.9511 H         1 <0>         0.0862
     37 H16         4.6859    2.0077    2.6882 H         1 <0>         0.0969
     38 H17         3.9980    4.1693    0.6434 H         1 <0>         0.0400
     39 H18         4.4311    4.4186    2.3523 H         1 <0>         0.0989
     40 H19         6.3492    4.7576    1.0132 H         1 <0>         0.3593
     41 H20         5.6467    3.4231   -0.9198 H         1 <0>         0.0405
     42 H21         7.3157    3.1130   -0.3828 H         1 <0>         0.0994
     43 H22         6.5923    1.1408    0.8866 H         1 <0>         0.0912
     44 H23         5.9856    0.9976   -0.7843 H         1 <0>         0.1030
     45 H24         1.7528   -0.7486   -0.8481 H         1 <0>         0.4340
@<TRIPOS>BOND
     1    1    6 1
     2    1    2 1
     3    1   23 1
     4    1   24 1
     5    2    3 1
     6    2   25 1
     7    2   26 1
     8    3    4 1
     9    3    5 1
    10    3   15 1
    11    5    6 1
    12    5    7 1
    13    5   45 1
    14    6   27 1
    15    6   28 1
    16    7    8 1
    17    7   29 1
    18    7   30 1
    19    8    9 1
    20    8   31 1
    21    8   32 1
    22    9   10 2
    23    9   11 am
    24   11   12 am
    25   11   33 1
    26   12   13 2
    27   12   14 am
    28   14   34 1
    29   14   35 1
    30   15   16 2
    31   15   17 am
    32   17   22 1
    33   17   18 1
    34   18   19 1
    35   18   36 1
    36   18   37 1
    37   19   20 1
    38   19   38 1
    39   19   39 1
    40   20   21 1
    41   20   40 1
    42   21   22 1
    43   21   41 1
    44   21   42 1
    45   22   43 1
    46   22   44 1
@<TRIPOS>MOLECULE
ZINC54075411
   40    40     0     0     0
SMALL
USER_CHARGES

@<TRIPOS>ATOM
      1 C1         -0.6144    1.3531    0.3031 C.3       1 <0>        -0.1818
      2 C2          0.0054   -0.0117   -0.0033 C.3       1 <0>         0.0028
      3 H1          0.6386    0.0669   -0.8870 H         1 <0>         0.1614
      4 C3          0.8356   -0.4615    1.1712 C.2       1 <0>         0.5011
      5 O1          0.3657   -1.2233    1.9897 O.2       1 <0>        -0.5227
      6 N1          2.1002   -0.0173    1.3121 N.am      1 <0>        -0.5849
      7 C4          2.6420    1.0002    0.4011 C.3       1 <0>         0.0900
      8 C5          3.1990    2.1600    1.2327 C.3       1 <0>        -0.1369
      9 C6          4.2122    1.6175    2.2432 C.3       1 <0>        -0.1220
     10 C7          3.5166    0.6356    3.1887 C.3       1 <0>        -0.1136
     11 H2          2.6982    1.1417    3.7009 H         1 <0>         0.0852
     12 C8          2.9613   -0.5370    2.3832 C.3       1 <0>         0.1149
     13 C9          4.5226    0.1195    4.2195 C.3       1 <0>         0.1437
     14 N2          4.9639    1.2285    5.0689 N.am      1 <0>        -0.7470
     15 C10         5.8567    1.0086    6.0544 C.2       1 <0>         0.7052
     16 O2          6.2958   -0.1102    6.2384 O.2       1 <0>        -0.5890
     17 N3          6.2627    2.0289    6.8359 N.am      1 <0>        -0.8654
     18 N4         -1.0623   -0.9897   -0.2514 N.4       1 <0>        -0.4955
     19 C11        -1.7970   -0.6148   -1.4670 C.3       1 <0>        -0.0497
     20 H3          0.1714    2.0539    0.5854 H         1 <0>         0.1100
     21 H4         -1.1315    1.7243   -0.5817 H         1 <0>         0.1002
     22 H5         -1.3246    1.2537    1.1240 H         1 <0>         0.0923
     23 H6          3.4406    0.5648   -0.1996 H         1 <0>         0.0896
     24 H7          1.8491    1.3660   -0.2512 H         1 <0>         0.0861
     25 H8          3.6898    2.8768    0.5744 H         1 <0>         0.0900
     26 H9          2.3836    2.6517    1.7632 H         1 <0>         0.0718
     27 H10         5.0147    1.1045    1.7131 H         1 <0>         0.0758
     28 H11         4.6283    2.4438    2.8196 H         1 <0>         0.0763
     29 H12         2.3789   -1.1851    3.0381 H         1 <0>         0.1052
     30 H13         3.7864   -1.1005    1.9477 H         1 <0>         0.0885
     31 H14         4.0508   -0.6452    4.8364 H         1 <0>         0.0727
     32 H15         5.3828   -0.3086    3.7048 H         1 <0>         0.0735
     33 H16         4.6136    2.1210    4.9221 H         1 <0>         0.3962
     34 H17         5.9124    2.9214    6.6891 H         1 <0>         0.3974
     35 H18         6.9052    1.8706    7.5451 H         1 <0>         0.4190
     36 H19        -0.6576   -1.9061   -0.3722 H         1 <0>         0.4351
     37 H20        -2.5892   -1.3405   -1.6511 H         1 <0>         0.1338
     38 H21        -2.2342    0.3751   -1.3365 H         1 <0>         0.1273
     39 H22        -1.1127   -0.6008   -2.3153 H         1 <0>         0.1261
     40 H23        -1.6957   -1.0027    0.5339 H         1 <0>         0.4373
@<TRIPOS>BOND
     1    1    2 1
     2    1   20 1
     3    1   21 1
     4    1   22 1
     5    2    3 1
     6    2    4 1
     7    2   18 1
     8    4    5 2
     9    4    6 am
    10    6   12 1
    11    6    7 1
    12    7    8 1
    13    7   23 1
    14    7   24 1
    15    8    9 1
    16    8   25 1
    17    8   26 1
    18    9   10 1
    19    9   27 1
    20    9   28 1
    21   10   11 1
    22   10   12 1
    23   10   13 1
    24   12   29 1
    25   12   30 1
    26   13   14 1
    27   13   31 1
    28   13   32 1
    29   14   15 am
    30   14   33 1
    31   15   16 2
    32   15   17 am
    33   17   34 1
    34   17   35 1
    35   18   19 1
    36   18   36 1
    37   18   40 1
    38   19   37 1
    39   19   38 1
    40   19   39 1
@<TRIPOS>MOLECULE
ZINC62815372
   37    37     0     0     0
SMALL
USER_CHARGES

@<TRIPOS>ATOM
      1 C1          0.3034    1.5099    0.1942 C.3       1 <0>        -0.1837
      2 C2          0.2139   -0.0159    0.1233 C.3       1 <0>         0.0286
      3 H1          0.7221   -0.3683   -0.7742 H         1 <0>         0.1494
      4 C3         -1.2560   -0.4389    0.0766 C.3       1 <0>         0.0126
      5 N1         -1.3394   -1.9055    0.0279 N.3       1 <0>        -0.6530
      6 C4         -0.6807   -2.5048    1.1971 C.3       1 <0>         0.0439
      7 H2         -0.7324   -3.5913    1.1264 H         1 <0>         0.1584
      8 C5          0.7845   -2.0648    1.2346 C.3       1 <0>         0.0043
      9 N2          0.8540   -0.5995    1.3096 N.4       1 <0>        -0.5104
     10 C6         -1.3755   -2.0491    2.4543 C.2       1 <0>         0.4629
     11 O1         -2.3258   -1.2989    2.3840 O.2       1 <0>        -0.5018
     12 N3         -0.9407   -2.4751    3.6568 N.am      1 <0>        -0.7196
     13 C7         -1.6161   -2.0320    4.8789 C.3       1 <0>         0.1575
     14 C8         -1.5423   -0.5071    4.9782 C.3       1 <0>        -0.1557
     15 C9         -3.0815   -2.4702    4.8393 C.3       1 <0>        -0.1651
     16 C10        -0.9403   -2.6468    6.0774 C.2       1 <0>         0.5154
     17 O2         -0.8543   -2.0208    7.1126 O.2       1 <0>        -0.5104
     18 N4         -0.4314   -3.8923    5.9989 N.am      1 <0>        -0.8521
     19 H3          1.3504    1.8112    0.2275 H         1 <0>         0.0863
     20 H4         -0.1715    1.9430   -0.6861 H         1 <0>         0.1113
     21 H5         -0.2048    1.8624    1.0917 H         1 <0>         0.0814
     22 H6         -1.7678   -0.0749    0.9675 H         1 <0>         0.0936
     23 H7         -1.7275   -0.0181   -0.8116 H         1 <0>         0.1264
     24 H8         -2.2985   -2.2109   -0.0429 H         1 <0>         0.3820
     25 H9          1.2713   -2.4968    2.1089 H         1 <0>         0.1391
     26 H10         1.2898   -2.4067    0.3314 H         1 <0>         0.1573
     27 H11         1.8199   -0.3103    1.3469 H         1 <0>         0.4351
     28 H12        -0.1806   -3.0751    3.7130 H         1 <0>         0.4024
     29 H13        -2.0311   -0.0624    4.1114 H         1 <0>         0.0843
     30 H14        -2.0448   -0.1774    5.8876 H         1 <0>         0.0893
     31 H15        -0.4983   -0.1949    5.0065 H         1 <0>         0.0579
     32 H16        -3.1341   -3.5566    4.7685 H         1 <0>         0.0655
     33 H17        -3.5840   -2.1405    5.7486 H         1 <0>         0.0820
     34 H18        -3.5703   -2.0255    3.9724 H         1 <0>         0.0926
     35 H19        -0.5001   -4.3930    5.1710 H         1 <0>         0.3985
     36 H20         0.0036   -4.2880    6.7703 H         1 <0>         0.4127
     37 H21         0.3761   -0.2823    2.1397 H         1 <0>         0.4209
@<TRIPOS>BOND
     1    1    2 1
     2    1   19 1
     3    1   20 1
     4    1   21 1
     5    2    3 1
     6    2    9 1
     7    2    4 1
     8    4    5 1
     9    4   22 1
    10    4   23 1
    11    5    6 1
    12    5   24 1
    13    6    7 1
    14    6    8 1
    15    6   10 1
    16    8    9 1
    17    8   25 1
    18    8   26 1
    19    9   27 1
    20    9   37 1
    21   10   11 2
    22   10   12 am
    23   12   13 1
    24   12   28 1
    25   13   14 1
    26   13   15 1
    27   13   16 1
    28   14   29 1
    29   14   30 1
    30   14   31 1
    31   15   32 1
    32   15   33 1
    33   15   34 1
    34   16   17 2
    35   16   18 am
    36   18   35 1
    37   18   36 1
@<TRIPOS>MOLECULE
ZINC36262169
   38    40     0     0     0
SMALL
USER_CHARGES

@<TRIPOS>ATOM
      1 C1         -0.0171    1.4084    0.0098 C.2       1 <0>        -0.3509
      2 C2          1.1865    2.0853    0.0019 C.2       1 <0>         0.1840
      3 N1          2.3363    1.3969   -0.0127 N.2       1 <0>        -0.6175
      4 C3          2.3466    0.0835   -0.0199 C.2       1 <0>         0.6129
      5 O1          3.5289   -0.5660   -0.0347 O.3       1 <0>        -0.6654
      6 N2          1.1947   -0.6360   -0.0123 N.am      1 <0>        -0.6584
      7 H1          1.2291   -1.6054   -0.0175 H         1 <0>         0.4026
      8 C4          0.0021   -0.0041    0.0020 C.2       1 <0>         0.5410
      9 O2         -1.0383   -0.6399    0.0089 O.2       1 <0>        -0.5790
     10 C5          1.2067    3.5712    0.0092 C.2       1 <0>         0.5945
     11 O3          0.1633    4.1927    0.0221 O.2       1 <0>        -0.5330
     12 N3          2.3829    4.2291    0.0015 N.am      1 <0>        -0.6067
     13 C6          3.7201    3.6041   -0.0206 C.3       1 <0>         0.1047
     14 C7          4.6451    4.6857   -0.6555 C.3       1 <0>        -0.1067
     15 H2          5.6968    4.5391   -0.4093 H         1 <0>         0.1051
     16 C8          4.3871    4.6430   -2.1628 C.3       1 <0>        -0.1140
     17 C9          4.8802    5.9206   -2.8366 C.3       1 <0>        -0.1357
     18 C10         4.0907    7.1057   -2.2690 C.3       1 <0>         0.0175
     19 H3          3.0227    6.9343   -2.4037 H         1 <0>         0.1448
     20 C11         4.4100    7.2231   -0.7789 C.3       1 <0>        -0.1228
     21 C12         4.0601    5.9607   -0.0188 C.3       1 <0>        -0.0947
     22 H4          4.4135    6.0372    1.0095 H         1 <0>         0.1014
     23 C13         2.5500    5.6939    0.0073 C.3       1 <0>         0.1105
     24 N4          4.4853    8.3406   -2.9599 N.4       1 <0>        -0.6341
     25 H5         -0.9529    1.9473    0.0260 H         1 <0>         0.1399
     26 H6          4.0477    3.3703    0.9924 H         1 <0>         0.0719
     27 H7          3.7094    2.7041   -0.6353 H         1 <0>         0.1315
     28 H8          4.9090    3.7875   -2.5915 H         1 <0>         0.0910
     29 H9          3.3171    4.5345   -2.3402 H         1 <0>         0.0779
     30 H10         5.9422    6.0563   -2.6317 H         1 <0>         0.0891
     31 H11         4.7175    5.8537   -3.9123 H         1 <0>         0.0862
     32 H12         5.4760    7.4152   -0.6574 H         1 <0>         0.0911
     33 H13         3.8490    8.0582   -0.3594 H         1 <0>         0.0886
     34 H14         2.0765    6.1275   -0.8735 H         1 <0>         0.0592
     35 H15         2.1138    6.1161    0.9126 H         1 <0>         0.0721
     36 H16         4.2911    8.2510   -3.9460 H         1 <0>         0.4358
     37 H17         3.9636    9.1179   -2.5837 H         1 <0>         0.4342
     38 H18         5.4722    8.5009   -2.8247 H         1 <0>         0.4313
@<TRIPOS>BOND
     1    1    8 1
     2    1    2 2
     3    1   25 1
     4    2    3 1
     5    2   10 1
     6    3    4 2
     7    4    5 1
     8    4    6 1
     9    6    7 1
    10    6    8 am
    11    8    9 2
    12   10   11 2
    13   10   12 am
    14   12   23 1
    15   12   13 1
    16   13   14 1
    17   13   26 1
    18   13   27 1
    19   14   15 1
    20   14   21 1
    21   14   16 1
    22   16   17 1
    23   16   28 1
    24   16   29 1
    25   17   18 1
    26   17   30 1
    27   17   31 1
    28   18   19 1
    29   18   20 1
    30   18   24 1
    31   20   21 1
    32   20   32 1
    33   20   33 1
    34   21   22 1
    35   21   23 1
    36   23   34 1
    37   23   35 1
    38   24   36 1
    39   24   37 1
    40   24   38 1
@<TRIPOS>MOLECULE
ZINC40376721
   35    35     0     0     0
SMALL
USER_CHARGES

@<TRIPOS>ATOM
      1 C1          0.5612    0.5746   -0.4029 C.3       1 <0>        -0.1531
      2 C2         -0.0470   -0.7789   -0.0299 C.3       1 <0>        -0.1254
      3 C3         -1.5560   -0.6226    0.1687 C.3       1 <0>         0.2190
      4 H1         -1.7468    0.1617    0.9012 H         1 <0>         0.1171
      5 C4         -2.1350   -1.9232    0.6630 C.2       1 <0>         0.3559
      6 N1         -2.1224   -2.1975    1.9253 N.2       1 <0>        -0.4155
      7 O1         -2.6664   -3.4195    2.3897 O.3       1 <0>        -0.4223
      8 N2         -2.6775   -2.8193   -0.2311 N.pl3     1 <0>        -0.8640
      9 N3         -2.1816   -0.2627   -1.1062 N.pl3     1 <0>        -1.1212
     10 S1         -3.0083    1.1650   -1.2490 S.o2      1 <0>         2.7840
     11 O2         -2.1513    2.1823   -0.7491 O.2       1 <0>        -0.9594
     12 O3         -3.5402    1.1964   -2.5663 O.2       1 <0>        -0.9667
     13 N4         -4.3019    1.0870   -0.2180 N.pl3     1 <0>        -1.0067
     14 C5         -5.5563    0.4340   -0.6247 C.3       1 <0>         0.0893
     15 C6         -5.9584   -0.5634    0.4678 C.3       1 <0>         0.0486
     16 O4         -5.9706    0.1033    1.7324 O.3       1 <0>        -0.3729
     17 C7         -4.6974    0.6107    2.1389 C.3       1 <0>         0.0447
     18 C8         -4.2288    1.6633    1.1340 C.3       1 <0>         0.0823
     19 H2          1.6437    0.4764   -0.4845 H         1 <0>         0.0631
     20 H3          0.1534    0.9054   -1.3581 H         1 <0>         0.0565
     21 H4          0.3198    1.3063    0.3681 H         1 <0>         0.0660
     22 H5          0.1420   -1.4949   -0.8297 H         1 <0>         0.0741
     23 H6          0.4058   -1.1384    0.8942 H         1 <0>         0.0864
     24 H7         -2.6116   -3.5354    3.3482 H         1 <0>         0.4021
     25 H8         -2.6870   -2.6133   -1.1789 H         1 <0>         0.3937
     26 H9         -3.0502   -3.6564    0.0871 H         1 <0>         0.4096
     27 H10        -2.1116   -0.8608   -1.8667 H         1 <0>         0.4180
     28 H11        -6.3387    1.1836   -0.7434 H         1 <0>         0.0853
     29 H12        -5.4069   -0.0937   -1.5666 H         1 <0>         0.0945
     30 H13        -6.9523   -0.9566    0.2539 H         1 <0>         0.1058
     31 H14        -5.2400   -1.3827    0.4951 H         1 <0>         0.0555
     32 H15        -4.7840    1.0622    3.1272 H         1 <0>         0.1081
     33 H16        -3.9744   -0.2044    2.1722 H         1 <0>         0.0609
     34 H17        -3.2007    1.9491    1.3561 H         1 <0>         0.1012
     35 H18        -4.8753    2.5387    1.1954 H         1 <0>         0.0857
@<TRIPOS>BOND
     1    1    2 1
     2    1   19 1
     3    1   20 1
     4    1   21 1
     5    2    3 1
     6    2   22 1
     7    2   23 1
     8    3    4 1
     9    3    5 1
    10    3    9 1
    11    5    6 2
    12    5    8 1
    13    6    7 1
    14    7   24 1
    15    8   25 1
    16    8   26 1
    17    9   10 1
    18    9   27 1
    19   10   11 2
    20   10   12 2
    21   10   13 1
    22   13   18 1
    23   13   14 1
    24   14   15 1
    25   14   28 1
    26   14   29 1
    27   15   16 1
    28   15   30 1
    29   15   31 1
    30   16   17 1
    31   17   18 1
    32   17   32 1
    33   17   33 1
    34   18   34 1
    35   18   35 1
@<TRIPOS>MOLECULE
ZINC48002706
   35    36     0     0     0
SMALL
USER_CHARGES

@<TRIPOS>ATOM
      1 C1         -0.0175    1.4401    0.0100 C.2       1 <0>        -0.1025
      2 C2          1.1863    2.0435    0.0017 C.2       1 <0>        -0.2471
      3 S1          2.3284    0.6791   -0.0165 S.3       1 <0>         0.2908
      4 C3          1.2519   -0.6078   -0.0132 C.2       1 <0>         0.0713
      5 C4          0.0021   -0.0041    0.0020 C.2       1 <0>        -0.2599
      6 C5         -1.2348   -0.7920    0.0101 C.2       1 <0>         0.5873
      7 O1         -1.1818   -2.0079    0.0035 O.2       1 <0>        -0.5576
      8 N1         -2.4302   -0.1697    0.0248 N.am      1 <0>        -0.8474
      9 N2          1.5431   -1.9608   -0.0232 N.am      1 <0>        -0.5822
     10 C6          2.8260   -2.3738   -0.0372 C.2       1 <0>         0.4997
     11 O2          3.7259   -1.5592   -0.0409 O.2       1 <0>        -0.4809
     12 C7          3.1402   -3.8333   -0.0480 C.2       1 <0>         0.5169
     13 O3          2.2404   -4.6478   -0.0442 O.2       1 <0>        -0.4998
     14 N3          4.4230   -4.2464   -0.0620 N.am      1 <0>        -0.6968
     15 C8          4.7313   -5.6785   -0.0726 C.3       1 <0>         0.1274
     16 C9          6.2488   -5.8734   -0.0875 C.3       1 <0>        -0.1393
     17 H1          6.7152   -5.3372    0.7389 H         1 <0>         0.0977
     18 C10         6.6127   -7.3826   -0.0426 C.3       1 <0>        -0.1473
     19 C11         7.9812   -7.3769   -0.7692 C.3       1 <0>         0.0505
     20 O4          7.8546   -6.3843   -1.7998 O.3       1 <0>        -0.3823
     21 C12         6.8468   -5.4273   -1.4391 C.3       1 <0>         0.0522
     22 H2         -0.9402    2.0011    0.0261 H         1 <0>         0.1453
     23 H3          1.4058    3.1009    0.0050 H         1 <0>         0.1922
     24 H4         -2.4725    0.7994    0.0300 H         1 <0>         0.4018
     25 H5         -3.2483   -0.6909    0.0301 H         1 <0>         0.4058
     26 H6          0.8240   -2.6117   -0.0202 H         1 <0>         0.4453
     27 H7          5.1421   -3.5954   -0.0650 H         1 <0>         0.4156
     28 H8          4.3136   -6.1467    0.8187 H         1 <0>         0.0841
     29 H9          4.2974   -6.1370   -0.9612 H         1 <0>         0.0830
     30 H10         6.7148   -7.7317    0.9849 H         1 <0>         0.0904
     31 H11         5.8812   -7.9794   -0.5874 H         1 <0>         0.0858
     32 H12         8.7765   -7.1030   -0.0759 H         1 <0>         0.0638
     33 H13         8.1807   -8.3545   -1.2079 H         1 <0>         0.0896
     34 H14         6.0668   -5.4080   -2.2002 H         1 <0>         0.0741
     35 H15         7.2910   -4.4370   -1.3381 H         1 <0>         0.0725
@<TRIPOS>BOND
     1    1    5 1
     2    1    2 2
     3    1   22 1
     4    2    3 1
     5    2   23 1
     6    3    4 1
     7    4    5 2
     8    4    9 1
     9    5    6 1
    10    6    7 2
    11    6    8 am
    12    8   24 1
    13    8   25 1
    14    9   10 am
    15    9   26 1
    16   10   11 2
    17   10   12 1
    18   12   13 2
    19   12   14 am
    20   14   15 1
    21   14   27 1
    22   15   16 1
    23   15   28 1
    24   15   29 1
    25   16   17 1
    26   16   21 1
    27   16   18 1
    28   18   19 1
    29   18   30 1
    30   18   31 1
    31   19   20 1
    32   19   32 1
    33   19   33 1
    34   20   21 1
    35   21   34 1
    36   21   35 1
@<TRIPOS>MOLECULE
ZINC52764176
   46    47     0     0     0
SMALL
USER_CHARGES

@<TRIPOS>ATOM
      1 C1          0.1266    1.7980   -0.6862 C.3       1 <0>        -0.1323
      2 C2          1.6032    1.8370   -0.2112 C.3       1 <0>        -0.1287
      3 C3          2.2568    0.6970   -1.0205 C.3       1 <0>         0.1396
      4 H1          2.7493    1.1044   -1.9034 H         1 <0>         0.0773
      5 N1          1.1830   -0.2217   -1.4260 N.am      1 <0>        -0.6098
      6 C4         -0.0952    0.2782   -0.8878 C.3       1 <0>         0.0872
      7 C5          1.3409   -1.3358   -2.1679 C.2       1 <0>         0.5410
      8 O1          2.4289   -1.6076   -2.6298 O.2       1 <0>        -0.4856
      9 C6          0.1656   -2.2437   -2.4235 C.3       1 <0>        -0.0569
     10 C7         -0.4359   -2.6916   -1.0879 C.3       1 <0>        -0.1653
     11 C8          0.6056   -3.5055   -0.3155 C.3       1 <0>         0.0623
     12 O2          1.0189   -4.6213   -1.1069 O.3       1 <0>        -0.3787
     13 C9          1.6318   -4.2620   -2.3468 C.3       1 <0>         0.0507
     14 C10         0.6315   -3.4786   -3.2008 C.3       1 <0>        -0.1257
     15 C11        -0.8758   -1.5065   -3.2255 C.2       1 <0>         0.3821
     16 N2         -0.5534   -0.9486   -4.3451 N.2       1 <0>        -0.4187
     17 O3          0.7502   -1.1184   -4.8712 O.3       1 <0>        -0.3917
     18 N3         -2.1713   -1.4277   -2.7648 N.pl3     1 <0>        -0.8336
     19 C12         3.2761   -0.0408   -0.1501 C.3       1 <0>        -0.1252
     20 C13         3.8801   -1.2007   -0.9442 C.3       1 <0>        -0.1257
     21 C14         5.0381   -1.8122   -0.1530 C.3       1 <0>         0.0713
     22 O4          5.6022   -2.8956   -0.8947 O.3       1 <0>        -0.5695
     23 H2         -0.5409    2.1920    0.0801 H         1 <0>         0.0863
     24 H3          0.0037    2.3386   -1.6247 H         1 <0>         0.0768
     25 H4          2.0616    2.7953   -0.4554 H         1 <0>         0.0841
     26 H5          1.6696    1.6378    0.8584 H         1 <0>         0.0799
     27 H6         -0.3195   -0.2021    0.0647 H         1 <0>         0.0706
     28 H7         -0.9012    0.1037   -1.6006 H         1 <0>         0.0825
     29 H8         -0.7198   -1.8159   -0.5043 H         1 <0>         0.0877
     30 H9         -1.3157   -3.3079   -1.2730 H         1 <0>         0.0898
     31 H10         1.4682   -2.8765   -0.0954 H         1 <0>         0.0495
     32 H11         0.1689   -3.8630    0.6170 H         1 <0>         0.1001
     33 H12         2.5078   -3.6430   -2.1533 H         1 <0>         0.0790
     34 H13         1.9344   -5.1647   -2.8776 H         1 <0>         0.0974
     35 H14        -0.2266   -4.1108   -3.4286 H         1 <0>         0.0752
     36 H15         1.1110   -3.1657   -4.1283 H         1 <0>         0.1009
     37 H16         0.8974   -0.6639   -5.7119 H         1 <0>         0.3971
     38 H17        -2.3977   -1.7823   -1.8908 H         1 <0>         0.4119
     39 H18        -2.8574   -1.0175   -3.3143 H         1 <0>         0.4080
     40 H19         4.0675    0.6480    0.1457 H         1 <0>         0.0724
     41 H20         2.7807   -0.4288    0.7399 H         1 <0>         0.0631
     42 H21         3.1168   -1.9596   -1.1163 H         1 <0>         0.0960
     43 H22         4.2487   -0.8326   -1.9017 H         1 <0>         0.0786
     44 H23         5.8014   -1.0533    0.0190 H         1 <0>         0.0375
     45 H24         4.6695   -2.1803    0.8045 H         1 <0>         0.0360
     46 H25         6.3433   -3.3314   -0.4521 H         1 <0>         0.3755
@<TRIPOS>BOND
     1    1    6 1
     2    1    2 1
     3    1   23 1
     4    1   24 1
     5    2    3 1
     6    2   25 1
     7    2   26 1
     8    3    4 1
     9    3    5 1
    10    3   19 1
    11    5    6 1
    12    5    7 am
    13    6   27 1
    14    6   28 1
    15    7    8 2
    16    7    9 1
    17    9   14 1
    18    9   10 1
    19    9   15 1
    20   10   11 1
    21   10   29 1
    22   10   30 1
    23   11   12 1
    24   11   31 1
    25   11   32 1
    26   12   13 1
    27   13   14 1
    28   13   33 1
    29   13   34 1
    30   14   35 1
    31   14   36 1
    32   15   16 2
    33   15   18 1
    34   16   17 1
    35   17   37 1
    36   18   38 1
    37   18   39 1
    38   19   20 1
    39   19   40 1
    40   19   41 1
    41   20   21 1
    42   20   42 1
    43   20   43 1
    44   21   22 1
    45   21   44 1
    46   21   45 1
    47   22   46 1
@<TRIPOS>MOLECULE
ZINC62841017
   37    37     0     0     0
SMALL
USER_CHARGES

@<TRIPOS>ATOM
      1 C1         -0.0187    1.5258    0.0104 C.3       1 <0>        -0.1484
      2 C2          0.0021   -0.0041    0.0020 C.3       1 <0>        -0.0900
      3 C3          0.7273   -0.4995   -1.2525 C.3       1 <0>        -0.1388
      4 C4          0.8143   -2.0267   -1.2151 C.3       1 <0>        -0.0116
      5 N1          1.5556   -2.4491   -0.0207 N.4       1 <0>        -0.5022
      6 C5          0.8289   -2.0398    1.1872 C.3       1 <0>        -0.0205
      7 C6          0.7425   -0.5130    1.2422 C.3       1 <0>        -0.1193
      8 C7         -1.4112   -0.5273    0.0088 C.2       1 <0>         0.5126
      9 O1         -1.7914   -1.2352    0.9172 O.2       1 <0>        -0.5395
     10 N2         -2.2526   -0.2084   -0.9947 N.am      1 <0>        -0.7003
     11 C8         -3.6264   -0.7171   -0.9881 C.3       1 <0>         0.0951
     12 C9         -4.3525   -0.2186   -2.2110 C.2       1 <0>         0.4932
     13 O2         -3.7788    0.4916   -3.0094 O.2       1 <0>        -0.5621
     14 N3         -5.6393   -0.5620   -2.4174 N.am      1 <0>        -0.6836
     15 C10        -6.3451   -0.0774   -3.6062 C.3       1 <0>         0.0478
     16 C11        -7.7584   -0.6006   -3.5994 C.2       1 <0>         0.4886
     17 O3         -8.1406   -1.3123   -2.6862 O.co2     1 <0>        -0.6903
     18 O4         -8.5195   -0.3122   -4.5072 O.co2     1 <0>        -0.6801
     19 H1          1.0039    1.9031    0.0027 H         1 <0>         0.0775
     20 H2         -0.5459    1.8868   -0.8726 H         1 <0>         0.0757
     21 H3         -0.5289    1.8773    0.9072 H         1 <0>         0.0751
     22 H4          0.1750   -0.1880   -2.1391 H         1 <0>         0.1188
     23 H5          1.7322   -0.0783   -1.2822 H         1 <0>         0.1044
     24 H6         -0.1911   -2.4469   -1.1856 H         1 <0>         0.1285
     25 H7          1.3299   -2.3828   -2.1070 H         1 <0>         0.1396
     26 H8          1.6574   -3.4529   -0.0267 H         1 <0>         0.4315
     27 H9         -0.1768   -2.4596    1.1654 H         1 <0>         0.1508
     28 H10         1.3553   -2.4054    2.0688 H         1 <0>         0.1336
     29 H11         1.7477   -0.0921    1.2642 H         1 <0>         0.0958
     30 H12         0.2010   -0.2112    2.1387 H         1 <0>         0.1194
     31 H13        -1.9485    0.3578   -1.7212 H         1 <0>         0.4144
     32 H14        -3.6104   -1.8069   -0.9941 H         1 <0>         0.1020
     33 H15        -4.1395   -0.3661   -0.0927 H         1 <0>         0.1046
     34 H16        -6.0981   -1.1300   -1.7788 H         1 <0>         0.4125
     35 H17        -6.3611    1.0125   -3.6002 H         1 <0>         0.0709
     36 H18        -5.8321   -0.4283   -4.5016 H         1 <0>         0.0702
     37 H19         2.4690   -2.0204   -0.0239 H         1 <0>         0.4241
@<TRIPOS>BOND
     1    1    2 1
     2    1   19 1
     3    1   20 1
     4    1   21 1
     5    2    7 1
     6    2    3 1
     7    2    8 1
     8    3    4 1
     9    3   22 1
    10    3   23 1
    11    4    5 1
    12    4   24 1
    13    4   25 1
    14    5    6 1
    15    5   26 1
    16    5   37 1
    17    6    7 1
    18    6   27 1
    19    6   28 1
    20    7   29 1
    21    7   30 1
    22    8    9 2
    23    8   10 am
    24   10   11 1
    25   10   31 1
    26   11   12 1
    27   11   32 1
    28   11   33 1
    29   12   13 2
    30   12   14 am
    31   14   15 1
    32   14   34 1
    33   15   16 1
    34   15   35 1
    35   15   36 1
    36   16   17 2
    37   16   18 1
@<TRIPOS>MOLECULE
ZINC20434363
   39    40     0     0     0
SMALL
USER_CHARGES
(2S,4R)-4-hydroxy-N-(2-morpholinoethyl)pyrrolidine-2-carboxamide
@<TRIPOS>ATOM
      1 C1          0.7721   -0.5054    1.2266 C.3       1 <0>         0.0175
      2 C2          0.0021   -0.0041    0.0020 C.3       1 <0>         0.0593
      3 O1         -0.0173    1.4259    0.0099 O.3       1 <0>        -0.3811
      4 C3          1.2838    2.0194    0.0006 C.3       1 <0>         0.0593
      5 C4          2.0669    1.5386    1.2252 C.3       1 <0>         0.0110
      6 N1          2.1251    0.0696    1.2174 N.3       1 <0>        -0.5329
      7 C5          2.9179   -0.4318    2.3479 C.3       1 <0>         0.0413
      8 C6          4.3794   -0.0155    2.1703 C.3       1 <0>         0.1182
      9 N2          5.1701   -0.5156    3.2977 N.am      1 <0>        -0.7130
     10 C7          6.4937   -0.2679    3.3550 C.2       1 <0>         0.5015
     11 O2          7.0301    0.3690    2.4733 O.2       1 <0>        -0.5286
     12 C8          7.3070   -0.7823    4.5147 C.3       1 <0>         0.0127
     13 H1          6.9257   -1.7934    4.7203 H         1 <0>         0.1643
     14 C9          7.2329    0.1981    5.7122 C.3       1 <0>        -0.1233
     15 C10         8.5289   -0.1138    6.4951 C.3       1 <0>         0.1019
     16 H2          8.9651    0.7561    7.0079 H         1 <0>         0.1062
     17 C11         9.4706   -0.7706    5.4688 C.3       1 <0>        -0.0316
     18 N3          8.7530   -0.7960    4.1757 N.4       1 <0>        -0.5277
     19 O3          8.2571   -1.0175    7.5682 O.3       1 <0>        -0.5929
     20 H3          0.8399   -1.6029    1.1955 H         1 <0>         0.0911
     21 H4          0.2485   -0.1962    2.1432 H         1 <0>         0.0484
     22 H5          0.4967   -0.3610   -0.9134 H         1 <0>         0.0636
     23 H6         -1.0286   -0.3869    0.0350 H         1 <0>         0.1052
     24 H7          1.8151    1.7237   -0.9161 H         1 <0>         0.0632
     25 H8          1.1874    3.1147    0.0314 H         1 <0>         0.1035
     26 H9          3.0873    1.9481    1.1919 H         1 <0>         0.0881
     27 H10         1.5635    1.8827    2.1407 H         1 <0>         0.0480
     28 H11         2.5276   -0.0092    3.2855 H         1 <0>         0.0466
     29 H12         2.8511   -1.5292    2.3846 H         1 <0>         0.0875
     30 H13         4.7696   -0.4381    1.2327 H         1 <0>         0.0887
     31 H14         4.4462    1.0819    2.1337 H         1 <0>         0.0790
     32 H15         4.6835   -1.0933    4.0974 H         1 <0>         0.4346
     33 H16         7.2026    1.2321    5.3382 H         1 <0>         0.1168
     34 H17         6.3247   -0.0066    6.2980 H         1 <0>         0.1314
     35 H18        10.3948   -0.1795    5.3884 H         1 <0>         0.1427
     36 H19         9.7157   -1.7915    5.7969 H         1 <0>         0.1417
     37 H20         8.9877   -1.7079    3.6071 H         1 <0>         0.4596
     38 H21         9.0719   -1.3464    8.2300 H         1 <0>         0.4352
     39 H22         8.9954    0.0879    3.5675 H         1 <0>         0.4630
@<TRIPOS>BOND
     1    1    6 1
     2    1    2 1
     3    1   20 1
     4    1   21 1
     5    2    3 1
     6    2   22 1
     7    2   23 1
     8    3    4 1
     9    4    5 1
    10    4   24 1
    11    4   25 1
    12    5    6 1
    13    5   26 1
    14    5   27 1
    15    6    7 1
    16    7    8 1
    17    7   28 1
    18    7   29 1
    19    8    9 1
    20    8   30 1
    21    8   31 1
    22    9   10 am
    23    9   32 1
    24   10   11 2
    25   10   12 1
    26   12   13 1
    27   12   18 1
    28   12   14 1
    29   14   15 1
    30   14   33 1
    31   14   34 1
    32   15   16 1
    33   15   17 1
    34   15   19 1
    35   17   18 1
    36   17   35 1
    37   17   36 1
    38   18   37 1
    39   18   39 1
    40   19   38 1
@<TRIPOS>MOLECULE
ZINC37254369
   37    37     0     0     0
SMALL
USER_CHARGES

@<TRIPOS>ATOM
      1 C1         -0.0019    1.4560    0.0013 C.3       1 <0>         0.0795
      2 N1          0.0145   -0.0089   -0.0036 N.am      1 <0>        -0.5936
      3 C2          1.2914   -0.7270   -0.0144 C.3       1 <0>         0.0579
      4 C3         -1.1450   -0.6958    0.0019 C.2       1 <0>         0.4938
      5 O1         -2.2020   -0.1013    0.0109 O.2       1 <0>        -0.5281
      6 C4         -1.1281   -2.2027   -0.0031 C.3       1 <0>        -0.0327
      7 N2         -2.5074   -2.7080    0.0045 N.4       1 <0>        -0.4936
      8 C5         -2.4909   -4.1769   -0.0003 C.3       1 <0>         0.0268
      9 C6         -1.8826   -4.6756   -1.3131 C.3       1 <0>        -0.1605
     10 C7         -1.8352   -6.2067   -1.3001 C.3       1 <0>         0.1324
     11 N3         -3.1848   -6.7193   -1.0274 N.am      1 <0>        -0.6385
     12 C8         -3.8974   -6.2347    0.1626 C.3       1 <0>         0.1155
     13 C9         -3.9217   -4.7033    0.1333 C.3       1 <0>        -0.1586
     14 C10        -3.7585   -7.6166   -1.8533 C.2       1 <0>         0.7107
     15 O2         -3.1997   -7.9380   -2.8842 O.2       1 <0>        -0.5763
     16 N4         -4.9515   -8.1577   -1.5365 N.am      1 <0>        -0.8626
     17 H1          1.0216    1.8309   -0.0043 H         1 <0>         0.0912
     18 H2         -0.5257    1.8164   -0.8841 H         1 <0>         0.0743
     19 H3         -0.5139    1.8107    0.8958 H         1 <0>         0.0744
     20 H4          1.6149   -0.9085    1.0105 H         1 <0>         0.0758
     21 H5          1.1683   -1.6792   -0.5305 H         1 <0>         0.0753
     22 H6          2.0409   -0.1278   -0.5313 H         1 <0>         0.0935
     23 H7         -0.6161   -2.5574   -0.8976 H         1 <0>         0.1617
     24 H8         -0.6043   -2.5631    0.8823 H         1 <0>         0.1625
     25 H9         -2.9813   -2.3797    0.8326 H         1 <0>         0.4358
     26 H10        -1.8922   -4.5361    0.8367 H         1 <0>         0.1464
     27 H11        -2.4947   -4.3376   -2.1493 H         1 <0>         0.0962
     28 H12        -0.8719   -4.2812   -1.4187 H         1 <0>         0.1006
     29 H13        -1.4954   -6.5700   -2.2700 H         1 <0>         0.1168
     30 H14        -1.1517   -6.5445   -0.5212 H         1 <0>         0.0819
     31 H15        -4.9184   -6.6165    0.1579 H         1 <0>         0.1000
     32 H16        -3.3821   -6.5748    1.0609 H         1 <0>         0.0866
     33 H17        -4.3624   -4.3286    1.0571 H         1 <0>         0.1059
     34 H18        -4.5146   -4.3651   -0.7165 H         1 <0>         0.0961
     35 H19        -5.4311   -7.8490   -0.7519 H         1 <0>         0.3966
     36 H20        -5.3306   -8.8558   -2.0931 H         1 <0>         0.4221
     37 H21        -2.9923   -2.3744   -0.8150 H         1 <0>         0.4341
@<TRIPOS>BOND
     1    1    2 1
     2    1   17 1
     3    1   18 1
     4    1   19 1
     5    2    3 1
     6    2    4 am
     7    3   20 1
     8    3   21 1
     9    3   22 1
    10    4    5 2
    11    4    6 1
    12    6    7 1
    13    6   23 1
    14    6   24 1
    15    7    8 1
    16    7   25 1
    17    7   37 1
    18    8   13 1
    19    8    9 1
    20    8   26 1
    21    9   10 1
    22    9   27 1
    23    9   28 1
    24   10   11 1
    25   10   29 1
    26   10   30 1
    27   11   12 1
    28   11   14 am
    29   12   13 1
    30   12   31 1
    31   12   32 1
    32   13   33 1
    33   13   34 1
    34   14   15 2
    35   14   16 am
    36   16   35 1
    37   16   36 1
@<TRIPOS>MOLECULE
ZINC40486761
   40    41     0     0     0
SMALL
USER_CHARGES

@<TRIPOS>ATOM
      1 C1         -0.0189    1.5389    0.0105 C.3       1 <0>        -0.1388
      2 C2          1.4877    1.9090   -0.0019 C.3       1 <0>        -0.1220
      3 C3          2.0771    0.7912   -0.8979 C.3       1 <0>        -0.0525
      4 H1          1.9393    1.0367   -1.9509 H         1 <0>         0.1291
      5 N1          1.3058   -0.4202   -0.5467 N.4       1 <0>        -0.3704
      6 C4          0.0021   -0.0041    0.0020 C.3       1 <0>        -0.0147
      7 C5          1.0977   -1.2394   -1.7482 C.3       1 <0>         0.0333
      8 C6          0.2976   -2.4909   -1.3798 C.3       1 <0>        -0.1590
      9 C7          0.0528   -3.3253   -2.6410 C.3       1 <0>         0.1158
     10 N2          1.3451   -3.6024   -3.2828 N.am      1 <0>        -0.5946
     11 C8          2.2335   -2.4754   -3.5980 C.3       1 <0>         0.1034
     12 C9          2.4538   -1.6506   -2.3261 C.3       1 <0>        -0.1607
     13 C10         1.7088   -4.8665   -3.5765 C.2       1 <0>         0.5016
     14 O1          0.9668   -5.7883   -3.3109 O.2       1 <0>        -0.5240
     15 C11         3.0376   -5.1346   -4.2349 C.3       1 <0>        -0.0315
     16 N3          3.1960   -6.5794   -4.4479 N.4       1 <0>        -0.6209
     17 C12         3.5395    0.5914   -0.5937 C.2       1 <0>         0.4942
     18 O2          3.8795   -0.1886    0.2795 O.co2     1 <0>        -0.6669
     19 O3          4.3826    1.2097   -1.2209 O.co2     1 <0>        -0.6332
     20 H2         -0.5001    1.9129    0.9142 H         1 <0>         0.1085
     21 H3         -0.5172    1.9225   -0.8798 H         1 <0>         0.0934
     22 H4          1.6450    2.8909   -0.4483 H         1 <0>         0.1115
     23 H5          1.9085    1.8666    1.0027 H         1 <0>         0.0961
     24 H6         -0.1103   -0.3820    1.0182 H         1 <0>         0.1264
     25 H7         -0.8031   -0.3824   -0.6278 H         1 <0>         0.1234
     26 H8          0.5467   -0.6619   -2.4905 H         1 <0>         0.1317
     27 H9          0.8592   -3.0817   -0.6560 H         1 <0>         0.0940
     28 H10        -0.6585   -2.1971   -0.9467 H         1 <0>         0.1067
     29 H11        -0.4294   -4.2644   -2.3699 H         1 <0>         0.1157
     30 H12        -0.5850   -2.7697   -3.3285 H         1 <0>         0.0924
     31 H13         3.1900   -2.8539   -3.9584 H         1 <0>         0.1019
     32 H14         1.7735   -1.8506   -4.3636 H         1 <0>         0.0985
     33 H15         3.0324   -0.7586   -2.5666 H         1 <0>         0.1172
     34 H16         2.9950   -2.2493   -1.5935 H         1 <0>         0.0988
     35 H17         3.0782   -4.6192   -5.1945 H         1 <0>         0.1668
     36 H18         3.8407   -4.7717   -3.5934 H         1 <0>         0.1672
     37 H19         3.1584   -7.0564   -3.5596 H         1 <0>         0.4432
     38 H20         2.4525   -6.9153   -5.0418 H         1 <0>         0.4428
     39 H21         1.8099   -0.9552    0.1445 H         1 <0>         0.4281
     40 H22         4.0856   -6.7589   -4.8888 H         1 <0>         0.4475
@<TRIPOS>BOND
     1    1    6 1
     2    1    2 1
     3    1   20 1
     4    1   21 1
     5    2    3 1
     6    2   22 1
     7    2   23 1
     8    3    4 1
     9    3    5 1
    10    3   17 1
    11    5    6 1
    12    5    7 1
    13    5   39 1
    14    6   24 1
    15    6   25 1
    16    7   12 1
    17    7    8 1
    18    7   26 1
    19    8    9 1
    20    8   27 1
    21    8   28 1
    22    9   10 1
    23    9   29 1
    24    9   30 1
    25   10   11 1
    26   10   13 am
    27   11   12 1
    28   11   31 1
    29   11   32 1
    30   12   33 1
    31   12   34 1
    32   13   14 2
    33   13   15 1
    34   15   16 1
    35   15   35 1
    36   15   36 1
    37   16   37 1
    38   16   38 1
    39   16   40 1
    40   17   18 2
    41   17   19 1
@<TRIPOS>MOLECULE
ZINC50350807
   35    35     0     0     0
SMALL
USER_CHARGES

@<TRIPOS>ATOM
      1 C1         -0.0187    1.5258    0.0104 C.3       1 <0>        -0.1899
      2 C2          0.0021   -0.0041    0.0020 C.3       1 <0>         0.1143
      3 H1         -1.0205   -0.3814    0.0098 H         1 <0>         0.1224
      4 C3          0.7421   -0.5109    1.2415 C.3       1 <0>        -0.0103
      5 N1          0.8668   -1.9730    1.1737 N.4       1 <0>        -0.6392
      6 N2          0.6878   -0.4765   -1.2033 N.pl3     1 <0>        -1.1364
      7 S1         -0.1875   -0.8749   -2.5515 S.o2      1 <0>         2.6147
      8 O1          0.7807   -1.3060   -3.4980 O.2       1 <0>        -0.9233
      9 O2         -1.1896   -1.7666   -2.0828 O.2       1 <0>        -0.9422
     10 C4         -0.9418    0.6829   -3.0947 C.3       1 <0>        -0.6194
     11 C5          0.1582    1.7006   -3.3817 C.3       1 <0>        -0.0990
     12 C6         -0.4537    3.0900   -3.5785 C.3       1 <0>        -0.6037
     13 S2         -1.5356    3.0546   -5.0383 S.o2      1 <0>         2.4149
     14 O3         -0.7508    2.7191   -6.1744 O.2       1 <0>        -0.9231
     15 O4         -2.3081    4.2471   -5.0573 O.2       1 <0>        -0.9278
     16 C7         -2.6340    1.6566   -4.6615 C.3       1 <0>        -0.5992
     17 C8         -1.7794    0.4269   -4.3441 C.3       1 <0>        -0.1011
     18 H2          1.0039    1.9031    0.0027 H         1 <0>         0.0833
     19 H3         -0.5459    1.8868   -0.8726 H         1 <0>         0.0828
     20 H4         -0.5289    1.8773    0.9072 H         1 <0>         0.0900
     21 H5          1.7350   -0.0630    1.2804 H         1 <0>         0.1443
     22 H6          0.1838   -0.2350    2.1361 H         1 <0>         0.1531
     23 H7          1.3548   -2.3073    1.9911 H         1 <0>         0.4427
     24 H8         -0.0524   -2.3877    1.1377 H         1 <0>         0.4401
     25 H9          1.6545   -0.5560   -1.2117 H         1 <0>         0.4257
     26 H10        -1.5859    1.0651   -2.3028 H         1 <0>         0.1526
     27 H11         0.8543    1.7273   -2.5434 H         1 <0>         0.1005
     28 H12         0.6935    1.4097   -4.2855 H         1 <0>         0.1108
     29 H13        -1.0370    3.3601   -2.6982 H         1 <0>         0.1370
     30 H14         0.3408    3.8206   -3.7305 H         1 <0>         0.1484
     31 H15        -3.2548    1.9021   -3.7998 H         1 <0>         0.1394
     32 H16        -3.2681    1.4481   -5.5231 H         1 <0>         0.1501
     33 H17        -1.1191    0.2180   -5.1858 H         1 <0>         0.1088
     34 H18        -2.4294   -0.4315   -4.1743 H         1 <0>         0.1050
     35 H19         1.3836   -2.2284    0.3456 H         1 <0>         0.4336
@<TRIPOS>BOND
     1    1    2 1
     2    1   18 1
     3    1   19 1
     4    1   20 1
     5    2    3 1
     6    2    4 1
     7    2    6 1
     8    4    5 1
     9    4   21 1
    10    4   22 1
    11    5   23 1
    12    5   24 1
    13    5   35 1
    14    6    7 1
    15    6   25 1
    16    7    8 2
    17    7    9 2
    18    7   10 1
    19   10   17 1
    20   10   11 1
    21   10   26 1
    22   11   12 1
    23   11   27 1
    24   11   28 1
    25   12   13 1
    26   12   29 1
    27   12   30 1
    28   13   14 2
    29   13   15 2
    30   13   16 1
    31   16   17 1
    32   16   31 1
    33   16   32 1
    34   17   33 1
    35   17   34 1
@<TRIPOS>MOLECULE
ZINC62813455
   35    36     0     0     0
SMALL
USER_CHARGES

@<TRIPOS>ATOM
      1 C1         -0.0187    1.5250    0.0104 C.3       1 <0>        -0.1369
      2 C2          1.4272    2.0357   -0.0006 C.3       1 <0>        -0.1300
      3 C3          2.0554    1.6807   -1.3506 C.3       1 <0>         0.1366
      4 H1          1.6173    2.3052   -2.1292 H         1 <0>         0.1249
      5 C4          1.8007    0.2352   -1.6683 C.2       1 <0>         0.5018
      6 O1          2.4849   -0.2949   -2.5180 O.2       1 <0>        -0.5366
      7 N1          0.8629   -0.4968   -1.0660 N.am      1 <0>        -0.7160
      8 C5          0.0021   -0.0041    0.0020 C.3       1 <0>         0.1024
      9 N2          3.5000    1.9173   -1.2924 N.am      1 <0>        -0.7132
     10 C6          4.1877    2.1692   -2.4238 C.2       1 <0>         0.5187
     11 O2          3.6107    2.2000   -3.4901 O.2       1 <0>        -0.4723
     12 C7          5.6737    2.4125   -2.3639 C.3       1 <0>         0.0492
     13 H2          6.1257    1.7279   -1.6461 H         1 <0>         0.0858
     14 C8          5.9377    3.8557   -1.9291 C.3       1 <0>         0.0031
     15 N3          7.3858    4.0985   -1.8902 N.4       1 <0>        -0.5042
     16 C9          7.9542    3.8953   -3.2293 C.3       1 <0>        -0.0073
     17 C10         7.7070    2.4524   -3.6749 C.3       1 <0>         0.0300
     18 N4          6.2613    2.1884   -3.6923 N.3       1 <0>        -0.6667
     19 H3         -0.5247    1.8789    0.9086 H         1 <0>         0.0986
     20 H4         -0.5417    1.8885   -0.8741 H         1 <0>         0.0805
     21 H5          1.4354    3.1172    0.1349 H         1 <0>         0.0883
     22 H6          1.9904    1.5604    0.8025 H         1 <0>         0.0795
     23 H7          0.7460   -1.4147   -1.3570 H         1 <0>         0.4052
     24 H8          0.3754   -0.3646    0.9605 H         1 <0>         0.0722
     25 H9         -1.0107   -0.3773   -0.1501 H         1 <0>         0.0862
     26 H10         3.9615    1.8926   -0.4396 H         1 <0>         0.4031
     27 H11         5.4735    4.5399   -2.6394 H         1 <0>         0.1481
     28 H12         5.5151    4.0196   -0.9378 H         1 <0>         0.1424
     29 H13         7.5598    5.0464   -1.5915 H         1 <0>         0.4379
     30 H14         7.4797    4.5792   -3.9330 H         1 <0>         0.1426
     31 H15         9.0266    4.0884   -3.2019 H         1 <0>         0.1429
     32 H16         8.1156    2.3055   -4.6747 H         1 <0>         0.1312
     33 H17         8.1929    1.7685   -2.9790 H         1 <0>         0.0616
     34 H18         6.0679    1.2539   -4.0202 H         1 <0>         0.3836
     35 H19         7.8168    3.4573   -1.2412 H         1 <0>         0.4270
@<TRIPOS>BOND
     1    1    8 1
     2    1    2 1
     3    1   19 1
     4    1   20 1
     5    2    3 1
     6    2   21 1
     7    2   22 1
     8    3    4 1
     9    3    5 1
    10    3    9 1
    11    5    6 2
    12    5    7 am
    13    7    8 1
    14    7   23 1
    15    8   24 1
    16    8   25 1
    17    9   10 am
    18    9   26 1
    19   10   11 2
    20   10   12 1
    21   12   13 1
    22   12   18 1
    23   12   14 1
    24   14   15 1
    25   14   27 1
    26   14   28 1
    27   15   16 1
    28   15   29 1
    29   15   35 1
    30   16   17 1
    31   16   30 1
    32   16   31 1
    33   17   18 1
    34   17   32 1
    35   17   33 1
    36   18   34 1
@<TRIPOS>MOLECULE
ZINC05183942
   33    34     0     0     0
SMALL
USER_CHARGES

@<TRIPOS>ATOM
      1 C1          0.1528   -0.8187    0.8024 C.3       1 <0>        -0.1543
      2 C2          0.0863    0.0196   -0.4482 C.2       1 <0>         0.2939
      3 C3          0.0555    1.4158   -0.3540 C.2       1 <0>        -0.2583
      4 C4          0.1066    2.2050   -1.5242 C.2       1 <0>        -0.0230
      5 C5          0.0762    3.5583   -1.4304 C.2       1 <0>        -0.2529
      6 C6         -0.0058    4.1759   -0.1678 C.2       1 <0>         0.3909
      7 O1         -0.0328    5.3970   -0.0854 O.2       1 <0>        -0.5234
      8 C7         -0.0574    3.3914    1.0002 C.2       1 <0>        -0.2615
      9 C8         -0.0326    2.0376    0.9111 C.2       1 <0>        -0.0025
     10 N1          0.0566   -0.5720   -1.6511 N.pl3     1 <0>        -0.4609
     11 N2         -0.0278   -1.9674   -1.7436 N.am      1 <0>        -0.5250
     12 C9          0.0477   -2.5688   -2.9474 C.2       1 <0>         0.5998
     13 O2          0.0953   -1.8975   -3.9608 O.2       1 <0>        -0.5314
     14 C10         0.0724   -4.0366   -3.0359 C.2       1 <0>        -0.3310
     15 C11         0.2665   -4.6722   -4.2467 C.2       1 <0>         0.2816
     16 N3          0.2833   -6.0298   -4.2902 N.am      1 <0>        -0.6203
     17 H1          0.4200   -6.4751   -5.1410 H         1 <0>         0.4498
     18 C12         0.1155   -6.7691   -3.1825 C.2       1 <0>         0.6978
     19 O3          0.1390   -7.9809   -3.2750 O.2       1 <0>        -0.5132
     20 N4         -0.0771   -6.2128   -1.9743 N.am      1 <0>        -0.6471
     21 H2         -0.1940   -6.7797   -1.1959 H         1 <0>         0.4421
     22 C13        -0.1029   -4.8704   -1.8358 C.2       1 <0>         0.5727
     23 O4         -0.2721   -4.3609   -0.7439 O.2       1 <0>        -0.5084
     24 H3         -0.8578   -1.0460    1.1416 H         1 <0>         0.1077
     25 H4          0.6821   -1.7475    0.5894 H         1 <0>         0.0862
     26 H5          0.6823   -0.2690    1.5805 H         1 <0>         0.1115
     27 H6          0.1702    1.7317   -2.4929 H         1 <0>         0.1089
     28 H7          0.1152    4.1622   -2.3249 H         1 <0>         0.1262
     29 H8         -0.1202    3.8674    1.9675 H         1 <0>         0.1276
     30 H9         -0.0763    1.4362    1.8071 H         1 <0>         0.1242
     31 H10         0.0935   -0.0339   -2.4573 H         1 <0>         0.4437
     32 H11        -0.1405   -2.5007   -0.9413 H         1 <0>         0.4419
     33 H12         0.4031   -4.0957   -5.1497 H         1 <0>         0.2069
@<TRIPOS>BOND
     1    1    2 1
     2    1   24 1
     3    1   25 1
     4    1   26 1
     5    2    3 2
     6    2   10 1
     7    3    9 1
     8    3    4 1
     9    4    5 2
    10    4   27 1
    11    5    6 1
    12    5   28 1
    13    6    7 2
    14    6    8 1
    15    8    9 2
    16    8   29 1
    17    9   30 1
    18   10   11 1
    19   10   31 1
    20   11   12 am
    21   11   32 1
    22   12   13 2
    23   12   14 1
    24   14   22 1
    25   14   15 2
    26   15   16 1
    27   15   33 1
    28   16   17 1
    29   16   18 am
    30   18   19 2
    31   18   20 am
    32   20   21 1
    33   20   22 am
    34   22   23 2
@<TRIPOS>MOLECULE
ZINC44167748
   39    39     0     0     0
SMALL
USER_CHARGES

@<TRIPOS>ATOM
      1 C1          0.0878    0.9473    0.3923 C.3       1 <0>        -0.1850
      2 C2          0.2554   -0.5701    0.2897 C.3       1 <0>         0.1365
      3 C3          1.1348   -1.0649    1.4398 C.3       1 <0>        -0.1838
      4 C4         -1.1170   -1.2414    0.3718 C.3       1 <0>        -0.1404
      5 O1          0.8723   -0.8979   -0.9568 O.3       1 <0>        -0.3634
      6 C5          2.0944   -0.3826   -1.1883 C.2       1 <0>         0.6567
      7 O2          2.6227    0.3263   -0.3547 O.2       1 <0>        -0.5325
      8 N1          2.7318   -0.6528   -2.3447 N.am      1 <0>        -0.5838
      9 C6          2.1664   -1.6104   -3.3050 C.3       1 <0>         0.0833
     10 C7          3.2267   -2.6673   -3.6298 C.3       1 <0>         0.0585
     11 H1          2.8542   -3.3278   -4.4127 H         1 <0>         0.0763
     12 C8          4.5026   -1.9728   -4.1117 C.3       1 <0>         0.0819
     13 H2          5.2504   -2.7236   -4.3669 H         1 <0>         0.0725
     14 C9          5.0447   -1.0701   -3.0011 C.3       1 <0>         0.1125
     15 H3          5.2463   -1.6680   -2.1122 H         1 <0>         0.0853
     16 C10         4.0021    0.0090   -2.6717 C.3       1 <0>         0.1796
     17 H4          3.8629    0.6616   -3.5335 H         1 <0>         0.0970
     18 C11         4.4750    0.8327   -1.4721 C.3       1 <0>         0.0899
     19 O3          3.5950    1.9419   -1.2792 O.3       1 <0>        -0.5548
     20 O4          6.2529   -0.4464   -3.4405 O.3       1 <0>        -0.5507
     21 O5          4.2079   -1.1830   -5.2655 O.3       1 <0>        -0.5417
     22 O6          3.5130   -3.4318   -2.4569 O.3       1 <0>        -0.5552
     23 H5          1.0655    1.4256    0.3339 H         1 <0>         0.0924
     24 H6         -0.5387    1.2999   -0.4270 H         1 <0>         0.0570
     25 H7         -0.3827    1.1974    1.3432 H         1 <0>         0.0668
     26 H8          0.6643   -0.8148    2.3906 H         1 <0>         0.0685
     27 H9          1.2542   -2.1459    1.3667 H         1 <0>         0.0570
     28 H10         2.1126   -0.5866    1.3813 H         1 <0>         0.0868
     29 H11        -1.7435   -0.8888   -0.4475 H         1 <0>         0.0655
     30 H12        -0.9976   -2.3224    0.2987 H         1 <0>         0.0646
     31 H13        -1.5875   -0.9913    1.3227 H         1 <0>         0.0799
     32 H14         1.2917   -2.0925   -2.8684 H         1 <0>         0.0981
     33 H15         1.8805   -1.0871   -4.2174 H         1 <0>         0.0853
     34 H16         4.4732    0.2078   -0.5790 H         1 <0>         0.0679
     35 H17         5.4850    1.1981   -1.6578 H         1 <0>         0.0472
     36 H18         3.8347    2.5091   -0.5337 H         1 <0>         0.3747
     37 H19         6.9560   -1.0692   -3.6704 H         1 <0>         0.3841
     38 H20         3.8601   -1.6907   -6.0114 H         1 <0>         0.3802
     39 H21         2.7472   -3.8982   -2.0948 H         1 <0>         0.3853
@<TRIPOS>BOND
     1    1    2 1
     2    1   23 1
     3    1   24 1
     4    1   25 1
     5    2    3 1
     6    2    4 1
     7    2    5 1
     8    3   26 1
     9    3   27 1
    10    3   28 1
    11    4   29 1
    12    4   30 1
    13    4   31 1
    14    5    6 1
    15    6    7 2
    16    6    8 am
    17    8   16 1
    18    8    9 1
    19    9   10 1
    20    9   32 1
    21    9   33 1
    22   10   11 1
    23   10   12 1
    24   10   22 1
    25   12   13 1
    26   12   14 1
    27   12   21 1
    28   14   15 1
    29   14   16 1
    30   14   20 1
    31   16   17 1
    32   16   18 1
    33   18   19 1
    34   18   34 1
    35   18   35 1
    36   19   36 1
    37   20   37 1
    38   21   38 1
    39   22   39 1
@<TRIPOS>MOLECULE
ZINC06781004
   30    32     0     0     0
SMALL
USER_CHARGES

@<TRIPOS>ATOM
      1 C1         -0.0144    1.5044    0.0405 C.3       1 <0>        -0.1479
      2 C2          0.0035   -0.0024    0.0251 C.2       1 <0>         0.5024
      3 O1         -1.0414   -0.6229    0.0472 O.2       1 <0>        -0.5866
      4 N1          1.1640   -0.6540   -0.0126 N.2       1 <0>        -0.6743
      5 C3          1.1851   -1.9776    0.0803 C.2       1 <0>         0.7000
      6 N2          0.0665   -2.7413    0.0881 N.pl3     1 <0>        -0.7069
      7 C4          0.4487   -4.1559    0.1992 C.3       1 <0>         0.2951
      8 C5          0.0089   -4.7029    1.5343 C.2       1 <0>         0.3899
      9 O2         -1.1376   -4.8820    1.8860 O.2       1 <0>        -0.3950
     10 C6          1.2108   -4.9826    2.3366 C.ar      1 <0>        -0.1648
     11 C7          1.3270   -5.4990    3.6370 C.ar      1 <0>        -0.0423
     12 C8          2.5709   -5.6802    4.1988 C.ar      1 <0>        -0.1124
     13 C9          3.7107   -5.3543    3.4843 C.ar      1 <0>        -0.0738
     14 C10         3.6065   -4.8460    2.2027 C.ar      1 <0>        -0.0930
     15 C11         2.3647   -4.6583    1.6246 C.ar      1 <0>        -0.0937
     16 C12         1.9904   -4.1270    0.2622 C.3       1 <0>         0.3955
     17 N3          2.3276   -2.6995    0.1708 N.pl3     1 <0>        -0.6945
     18 O3          2.5821   -4.8948   -0.7878 O.3       1 <0>        -0.5049
     19 O4         -0.0316   -4.9291   -0.9023 O.3       1 <0>        -0.5007
     20 H1          1.0085    1.8802    0.0167 H         1 <0>         0.0849
     21 H2         -0.5563    1.8702   -0.8316 H         1 <0>         0.0888
     22 H3         -0.5084    1.8526    0.9476 H         1 <0>         0.0885
     23 H4         -0.8424   -2.4076    0.0302 H         1 <0>         0.4513
     24 H5          0.4397   -5.7541    4.1974 H         1 <0>         0.1401
     25 H6          2.6574   -6.0772    5.1995 H         1 <0>         0.1427
     26 H7          4.6843   -5.4971    3.9293 H         1 <0>         0.1429
     27 H8          4.4997   -4.5935    1.6507 H         1 <0>         0.1373
     28 H9          3.5490   -4.8972   -0.7765 H         1 <0>         0.3913
     29 H10        -0.9949   -4.9371   -0.9869 H         1 <0>         0.3970
     30 H11         3.2254   -2.3325    0.1767 H         1 <0>         0.4431
@<TRIPOS>BOND
     1    1    2 1
     2    1   20 1
     3    1   21 1
     4    1   22 1
     5    2    4 1
     6    2    3 2
     7    4    5 2
     8    5   17 1
     9    5    6 1
    10    6    7 1
    11    6   23 1
    12    7   16 1
    13    7    8 1
    14    7   19 1
    15    8    9 2
    16    8   10 1
    17   10   15 ar
    18   10   11 ar
    19   11   12 ar
    20   11   24 1
    21   12   13 ar
    22   12   25 1
    23   13   14 ar
    24   13   26 1
    25   14   15 ar
    26   14   27 1
    27   15   16 1
    28   16   18 1
    29   16   17 1
    30   17   30 1
    31   18   28 1
    32   19   29 1
@<TRIPOS>MOLECULE
ZINC51414368
   30    31     0     0     0
SMALL
USER_CHARGES

@<TRIPOS>ATOM
      1 C1         -0.0171    1.4117    0.0098 C.2       1 <0>         0.0014
      2 C2         -1.2151    2.0550    0.0190 C.2       1 <0>        -0.2371
      3 C3         -2.4053    1.3035    0.0206 C.2       1 <0>         0.5161
      4 N1         -2.3638   -0.0413    0.0135 N.am      1 <0>        -0.5976
      5 C4         -1.1899   -0.6995    0.0044 C.2       1 <0>         0.2196
      6 C5          0.0021   -0.0041    0.0020 C.2       1 <0>        -0.2582
      7 C6          1.2856   -0.7297   -0.0141 C.2       1 <0>         0.5846
      8 O1          1.2966   -1.9457   -0.0208 O.2       1 <0>        -0.5438
      9 N2          2.4466   -0.0452   -0.0216 N.am      1 <0>        -0.7159
     10 C7          3.7219   -0.7661   -0.0376 C.3       1 <0>         0.1061
     11 C8          4.8583    0.2236   -0.0432 C.2       1 <0>         0.5118
     12 O2          4.6259    1.4141   -0.0346 O.2       1 <0>        -0.5243
     13 N3          6.1330   -0.2141   -0.0577 N.am      1 <0>        -0.6362
     14 C9          7.1945    0.7103   -0.0629 C.2       1 <0>        -0.0068
     15 C10         8.5178    0.4080   -0.0826 C.2       1 <0>         0.0295
     16 N4          9.2058    1.5790   -0.0808 N.pl3     1 <0>        -0.4721
     17 H1         10.1711    1.6740   -0.0923 H         1 <0>         0.4463
     18 N5          8.2747    2.6251   -0.0593 N.2       1 <0>        -0.2803
     19 C11         7.0731    2.1076   -0.0547 C.2       1 <0>         0.0557
     20 O3         -3.4823    1.8757    0.0288 O.2       1 <0>        -0.5350
     21 H2          0.9059    1.9724    0.0040 H         1 <0>         0.1411
     22 H3         -1.2531    3.1343    0.0254 H         1 <0>         0.1574
     23 H4         -1.1806   -1.7795   -0.0012 H         1 <0>         0.1837
     24 H5          2.4378    0.9247   -0.0163 H         1 <0>         0.4129
     25 H6          3.7938   -1.3970    0.8483 H         1 <0>         0.1067
     26 H7          3.7768   -1.3874   -0.9315 H         1 <0>         0.1066
     27 H8          6.3189   -1.1661   -0.0646 H         1 <0>         0.4152
     28 H9          8.9458   -0.5835   -0.0966 H         1 <0>         0.1824
     29 H10         6.1461    2.6616   -0.0433 H         1 <0>         0.2068
     30 H11        -3.1932   -0.5444    0.0154 H         1 <0>         0.4235
@<TRIPOS>BOND
     1    1    6 1
     2    1   21 1
     3    1    2 2
     4    2    3 1
     5    2   22 1
     6    3   20 2
     7    3    4 am
     8    4   30 1
     9    4    5 1
    10    5   23 1
    11    5    6 2
    12    6    7 1
    13    7    8 2
    14    7    9 am
    15    9   10 1
    16    9   24 1
    17   10   11 1
    18   10   25 1
    19   10   26 1
    20   11   12 2
    21   11   13 am
    22   13   14 1
    23   13   27 1
    24   14   19 1
    25   14   15 2
    26   15   16 1
    27   15   28 1
    28   16   17 1
    29   16   18 1
    30   18   19 2
    31   19   29 1
@<TRIPOS>MOLECULE
ZINC62779772
   36    37     0     0     0
SMALL
USER_CHARGES

@<TRIPOS>ATOM
      1 C1          0.0014    1.3937    0.1980 C.2       1 <0>        -0.1787
      2 C2          1.2876    1.7853    0.0406 C.2       1 <0>        -0.0076
      3 N1          2.0048    0.6853   -0.2743 N.pl3     1 <0>        -0.3845
      4 H1          2.9600    0.6754   -0.4428 H         1 <0>         0.4474
      5 N2          1.2402   -0.3461   -0.3183 N.2       1 <0>        -0.2602
      6 C3         -0.0014   -0.0009   -0.0417 C.2       1 <0>        -0.0099
      7 C4         -1.1729   -0.8991    0.0092 C.2       1 <0>         0.6036
      8 O1         -2.2881   -0.4363    0.1508 O.2       1 <0>        -0.5292
      9 N3         -1.0055   -2.2319   -0.1014 N.am      1 <0>        -0.6008
     10 C5          0.3414   -2.8187   -0.1138 C.3       1 <0>         0.0840
     11 C6          0.4174   -3.9017    0.9670 C.3       1 <0>        -0.1334
     12 C7         -0.7108   -4.9129    0.7504 C.3       1 <0>        -0.1163
     13 C8         -2.0624   -4.2051    0.8699 C.3       1 <0>        -0.1078
     14 H2         -2.1456   -3.7434    1.8538 H         1 <0>         0.0858
     15 C9         -2.1667   -3.1261   -0.2058 C.3       1 <0>         0.1132
     16 C10        -3.1899   -5.2231    0.6866 C.3       1 <0>         0.1193
     17 N4         -4.4803   -4.5697    0.9191 N.pl3     1 <0>        -1.1253
     18 S1         -5.8815   -5.3088    0.4366 S.o2      1 <0>         2.7991
     19 O2         -6.9466   -4.4503    0.8208 O.2       1 <0>        -0.9809
     20 O3         -5.6815   -5.7194   -0.9090 O.2       1 <0>        -0.9799
     21 N5         -6.0402   -6.6911    1.3346 N.pl3     1 <0>        -1.2599
     22 H3         -0.8438    2.0142    0.4568 H         1 <0>         0.1646
     23 H4          1.6689    2.7901    0.1467 H         1 <0>         0.1877
     24 H5          0.5378   -3.2622   -1.0899 H         1 <0>         0.0682
     25 H6          1.0795   -2.0437    0.0930 H         1 <0>         0.1269
     26 H7          1.3791   -4.4108    0.9049 H         1 <0>         0.0791
     27 H8          0.3109   -3.4428    1.9499 H         1 <0>         0.0661
     28 H9         -0.6180   -5.3533   -0.2424 H         1 <0>         0.0713
     29 H10        -0.6442   -5.6981    1.5034 H         1 <0>         0.0714
     30 H11        -3.0828   -2.5539   -0.0597 H         1 <0>         0.0967
     31 H12        -2.1793   -3.5952   -1.1896 H         1 <0>         0.0746
     32 H13        -3.1606   -5.6188   -0.3286 H         1 <0>         0.0864
     33 H14        -3.0622   -6.0388    1.3983 H         1 <0>         0.0707
     34 H15        -4.5140   -3.7041    1.3556 H         1 <0>         0.4231
     35 H16        -6.9228   -7.0339    1.5454 H         1 <0>         0.4217
     36 H17        -5.2506   -7.1580    1.6499 H         1 <0>         0.4133
@<TRIPOS>BOND
     1    1    6 1
     2    1    2 2
     3    1   22 1
     4    2    3 1
     5    2   23 1
     6    3    4 1
     7    3    5 1
     8    5    6 2
     9    6    7 1
    10    7    8 2
    11    7    9 am
    12    9   15 1
    13    9   10 1
    14   10   11 1
    15   10   24 1
    16   10   25 1
    17   11   12 1
    18   11   26 1
    19   11   27 1
    20   12   13 1
    21   12   28 1
    22   12   29 1
    23   13   14 1
    24   13   15 1
    25   13   16 1
    26   15   30 1
    27   15   31 1
    28   16   17 1
    29   16   32 1
    30   16   33 1
    31   17   18 1
    32   17   34 1
    33   18   19 2
    34   18   20 2
    35   18   21 1
    36   21   35 1
    37   21   36 1
@<TRIPOS>MOLECULE
ZINC35303796
   34    34     0     0     0
SMALL
USER_CHARGES

@<TRIPOS>ATOM
      1 C1          1.4548    1.5132    0.5801 C.3       1 <0>        -0.1673
      2 C2          1.3424   -0.0118    0.5276 C.3       1 <0>         0.1283
      3 N1          1.7842   -0.4892   -0.7850 N.am      1 <0>        -0.7326
      4 C3          1.7720   -1.8082   -1.0615 C.2       1 <0>         0.6943
      5 O1          1.3944   -2.6017   -0.2219 O.2       1 <0>        -0.5256
      6 N2          2.1786   -2.2474   -2.2691 N.am      1 <0>        -0.6789
      7 C4          2.1664   -3.5664   -2.5456 C.2       1 <0>         0.5128
      8 O2          1.7897   -4.3579   -1.7081 O.2       1 <0>        -0.4710
      9 C5          2.6209   -4.0575   -3.8959 C.3       1 <0>        -0.0284
     10 N3          2.5130   -5.5217   -3.9463 N.4       1 <0>        -0.3541
     11 C6          3.5039   -6.1254   -3.0302 C.3       1 <0>        -0.0062
     12 C7          3.9766   -7.4124   -3.7513 C.3       1 <0>        -0.1383
     13 C8          3.9972   -6.9520   -5.2326 C.3       1 <0>        -0.1211
     14 C9          2.7911   -5.9929   -5.3154 C.3       1 <0>        -0.0563
     15 H1          1.9231   -6.5218   -5.7090 H         1 <0>         0.1327
     16 C10         3.1272   -4.8218   -6.2023 C.2       1 <0>         0.4904
     17 O3          4.0479   -4.0787   -5.9080 O.co2     1 <0>        -0.6598
     18 O4          2.4785   -4.6174   -7.2142 O.co2     1 <0>        -0.6340
     19 H2          2.4917    1.8069    0.4168 H         1 <0>         0.0644
     20 H3          0.8268    1.9507   -0.1960 H         1 <0>         0.0644
     21 H4          1.1260    1.8683    1.5567 H         1 <0>         0.0800
     22 H5          1.9704   -0.4493    1.3037 H         1 <0>         0.0720
     23 H6          0.3054   -0.3055    0.6909 H         1 <0>         0.0719
     24 H7          2.0856    0.1441   -1.4552 H         1 <0>         0.4027
     25 H8          2.4799   -1.6141   -2.9393 H         1 <0>         0.4206
     26 H9          1.9929   -3.6200   -4.6720 H         1 <0>         0.1579
     27 H10         3.6578   -3.7638   -4.0592 H         1 <0>         0.1967
     28 H11         4.3426   -5.4462   -2.8774 H         1 <0>         0.1249
     29 H12         3.0374   -6.3741   -2.0770 H         1 <0>         0.1343
     30 H13         4.9733   -7.7026   -3.4187 H         1 <0>         0.1103
     31 H14         3.2656   -8.2255   -3.6050 H         1 <0>         0.0922
     32 H15         4.9244   -6.4257   -5.4598 H         1 <0>         0.1019
     33 H16         3.8610   -7.8013   -5.9021 H         1 <0>         0.1023
     34 H17         1.5839   -5.8040   -3.6722 H         1 <0>         0.4184
@<TRIPOS>BOND
     1    1    2 1
     2    1   19 1
     3    1   20 1
     4    1   21 1
     5    2    3 1
     6    2   22 1
     7    2   23 1
     8    3    4 am
     9    3   24 1
    10    4    5 2
    11    4    6 am
    12    6    7 am
    13    6   25 1
    14    7    8 2
    15    7    9 1
    16    9   10 1
    17    9   26 1
    18    9   27 1
    19   10   14 1
    20   10   11 1
    21   10   34 1
    22   11   12 1
    23   11   28 1
    24   11   29 1
    25   12   13 1
    26   12   30 1
    27   12   31 1
    28   13   14 1
    29   13   32 1
    30   13   33 1
    31   14   15 1
    32   14   16 1
    33   16   17 2
    34   16   18 1
@<TRIPOS>MOLECULE
ZINC42430357
   39    40     0     0     0
SMALL
USER_CHARGES

@<TRIPOS>ATOM
      1 C1         -0.0018    1.7453   -0.2264 C.3       1 <0>        -0.1323
      2 C2          1.4729    2.1272   -0.0792 C.3       1 <0>        -0.1397
      3 C3          2.2788    1.5070   -1.2228 C.3       1 <0>         0.0071
      4 H1          1.8857    1.8578   -2.1770 H         1 <0>         0.1452
      5 C4          2.1654   -0.0191   -1.1531 C.3       1 <0>         0.1160
      6 N1          0.7432   -0.3879   -1.1479 N.am      1 <0>        -0.6274
      7 C5         -0.1411    0.2218   -0.1454 C.3       1 <0>         0.0327
      8 C6          0.2588   -1.2683   -2.0460 C.2       1 <0>         0.7148
      9 O1          0.8882   -1.5141   -3.0568 O.2       1 <0>        -0.5867
     10 N2         -0.9233   -1.8763   -1.8237 N.am      1 <0>        -0.5845
     11 C7         -1.6182   -1.6828   -0.5486 C.3       1 <0>         0.0858
     12 C8         -2.8074   -0.7422   -0.7534 C.3       1 <0>        -0.2116
     13 C9         -3.5221   -0.5431    0.5583 C.2       1 <0>         0.4919
     14 O2         -3.1179   -1.1018    1.5638 O.co2     1 <0>        -0.6929
     15 O3         -4.5047    0.1766    0.6140 O.co2     1 <0>        -0.6891
     16 C10        -1.5134   -2.7308   -2.8571 C.3       1 <0>         0.0849
     17 C11        -0.5926   -3.2278   -3.9734 C.3       1 <0>        -0.1961
     18 C12        -1.6383   -2.1503   -4.2672 C.3       1 <0>        -0.1878
     19 N3          3.6886    1.9007   -1.0989 N.4       1 <0>        -0.6310
     20 H2         -0.5788    2.2065    0.5751 H         1 <0>         0.1024
     21 H3         -0.3735    2.0938   -1.1900 H         1 <0>         0.0770
     22 H4          1.5719    3.2122   -0.1119 H         1 <0>         0.0885
     23 H5          1.8506    1.7568    0.8738 H         1 <0>         0.0896
     24 H6          2.6545   -0.4619   -2.0207 H         1 <0>         0.1123
     25 H7          2.6396   -0.3794   -0.2402 H         1 <0>         0.0822
     26 H8          0.1451   -0.1188    0.8497 H         1 <0>         0.0817
     27 H9         -1.1738   -0.0620   -0.3481 H         1 <0>         0.1686
     28 H10        -1.9749   -2.6444   -0.1796 H         1 <0>         0.0839
     29 H11        -0.9312   -1.2473    0.1771 H         1 <0>         0.1179
     30 H12        -2.4507    0.2194   -1.1224 H         1 <0>         0.0647
     31 H13        -3.4943   -1.1777   -1.4791 H         1 <0>         0.0748
     32 H14        -2.3017   -3.4027   -2.5179 H         1 <0>         0.1331
     33 H15         0.4522   -2.9191   -3.9388 H         1 <0>         0.1451
     34 H16        -0.7749   -4.2271   -4.3686 H         1 <0>         0.0872
     35 H17        -2.5085   -2.4406   -4.8558 H         1 <0>         0.0967
     36 H18        -1.2814   -1.1326   -4.4260 H         1 <0>         0.0899
     37 H19         4.0525    1.5749   -0.2160 H         1 <0>         0.4326
     38 H20         4.2196    1.4916   -1.8531 H         1 <0>         0.4362
     39 H21         3.7622    2.9061   -1.1425 H         1 <0>         0.4364
@<TRIPOS>BOND
     1    1    7 1
     2    1    2 1
     3    1   20 1
     4    1   21 1
     5    2    3 1
     6    2   22 1
     7    2   23 1
     8    3    4 1
     9    3    5 1
    10    3   19 1
    11    5    6 1
    12    5   24 1
    13    5   25 1
    14    6    7 1
    15    6    8 am
    16    7   26 1
    17    7   27 1
    18    8    9 2
    19    8   10 am
    20   10   11 1
    21   10   16 1
    22   11   12 1
    23   11   28 1
    24   11   29 1
    25   12   13 1
    26   12   30 1
    27   12   31 1
    28   13   14 2
    29   13   15 1
    30   16   18 1
    31   16   17 1
    32   16   32 1
    33   17   18 1
    34   17   33 1
    35   17   34 1
    36   18   35 1
    37   18   36 1
    38   19   37 1
    39   19   38 1
    40   19   39 1
@<TRIPOS>MOLECULE
ZINC48645006
   35    36     0     0     0
SMALL
USER_CHARGES

@<TRIPOS>ATOM
      1 C1         -0.0188    1.5335    0.0105 C.3       1 <0>        -0.1211
      2 C2          1.4289    2.0809   -0.0004 C.3       1 <0>        -0.5810
      3 S1          2.3583    0.7478   -0.8615 S.o2      1 <0>         2.3674
      4 O1          3.3158    0.1993    0.0338 O.2       1 <0>        -0.9330
      5 O2          2.7814    1.2252   -2.1313 O.2       1 <0>        -0.9394
      6 C3          0.9956   -0.4689   -1.1008 C.3       1 <0>        -0.5731
      7 C4          0.0021   -0.0041    0.0020 C.3       1 <0>        -0.0839
      8 H1          0.3313   -0.3731    0.9734 H         1 <0>         0.1088
      9 C5         -1.3983   -0.5382   -0.3056 C.3       1 <0>        -0.1181
     10 C6         -1.3990   -2.0409   -0.1917 C.2       1 <0>         0.5144
     11 O3         -0.3798   -2.6269    0.1061 O.2       1 <0>        -0.5215
     12 N1         -2.5322   -2.7335   -0.4208 N.am      1 <0>        -0.5321
     13 N2         -2.5329   -4.1305   -0.3150 N.am      1 <0>        -0.5319
     14 C7         -3.6661   -4.8231   -0.5441 C.2       1 <0>         0.7171
     15 O4         -3.6667   -6.0355   -0.4522 O.2       1 <0>        -0.5639
     16 N3         -4.7987   -4.1719   -0.8751 N.am      1 <0>        -0.7146
     17 C8         -6.0305   -4.9247   -1.1242 C.3       1 <0>         0.0940
     18 C9         -6.8757   -4.5169   -2.3326 C.3       1 <0>        -0.1922
     19 C10        -7.3589   -4.1944   -0.9172 C.3       1 <0>        -0.1877
     20 H2         -0.5313    1.8835    0.9065 H         1 <0>         0.0988
     21 H3         -0.5483    1.8930   -0.8718 H         1 <0>         0.0899
     22 H4          1.4848    3.0146   -0.5601 H         1 <0>         0.1422
     23 H5          1.7988    2.2155    1.0160 H         1 <0>         0.1398
     24 H6          0.5543   -0.3764   -2.0932 H         1 <0>         0.1375
     25 H7          1.3394   -1.4869   -0.9179 H         1 <0>         0.1531
     26 H8         -2.1110   -0.1196    0.4050 H         1 <0>         0.1116
     27 H9         -1.6827   -0.2504   -1.3177 H         1 <0>         0.1100
     28 H10        -3.3474   -2.2648   -0.6590 H         1 <0>         0.4193
     29 H11        -1.7178   -4.5992   -0.0768 H         1 <0>         0.4459
     30 H12        -4.7983   -3.2046   -0.9484 H         1 <0>         0.3919
     31 H13        -5.9936   -5.9840   -0.8699 H         1 <0>         0.1432
     32 H14        -6.5151   -3.6884   -2.9423 H         1 <0>         0.0973
     33 H15        -7.3948   -5.3079   -2.8737 H         1 <0>         0.1061
     34 H16        -8.1961   -4.7733   -0.5272 H         1 <0>         0.1075
     35 H17        -7.3164   -3.1538   -0.5958 H         1 <0>         0.0976
@<TRIPOS>BOND
     1    1    7 1
     2    1    2 1
     3    1   20 1
     4    1   21 1
     5    2    3 1
     6    2   22 1
     7    2   23 1
     8    3    4 2
     9    3    5 2
    10    3    6 1
    11    6    7 1
    12    6   24 1
    13    6   25 1
    14    7    8 1
    15    7    9 1
    16    9   10 1
    17    9   26 1
    18    9   27 1
    19   10   11 2
    20   10   12 am
    21   12   13 1
    22   12   28 1
    23   13   14 am
    24   13   29 1
    25   14   15 2
    26   14   16 am
    27   16   17 1
    28   16   30 1
    29   17   19 1
    30   17   18 1
    31   17   31 1
    32   18   19 1
    33   18   32 1
    34   18   33 1
    35   19   34 1
    36   19   35 1
@<TRIPOS>MOLECULE
ZINC49187237
   43    44     0     0     0
SMALL
USER_CHARGES

@<TRIPOS>ATOM
      1 C1         -0.0187    1.5258    0.0104 C.3       1 <0>        -0.1662
      2 C2          0.0021   -0.0041    0.0020 C.3       1 <0>         0.1422
      3 H1          0.5293   -0.3651    0.8851 H         1 <0>         0.1112
      4 C3          0.7182   -0.4975   -1.2568 C.3       1 <0>        -0.0111
      5 N1          0.6338   -1.9624   -1.3257 N.4       1 <0>        -0.3903
      6 C4         -0.7672   -2.3832   -1.5829 C.3       1 <0>        -0.0239
      7 C5         -0.6071   -3.8060   -2.1749 C.3       1 <0>        -0.1447
      8 C6          0.6651   -3.6778   -3.0438 C.3       1 <0>        -0.1436
      9 C7          1.4226   -2.4654   -2.4713 C.3       1 <0>        -0.0094
     10 N2         -1.3723   -0.5112    0.0124 N.am      1 <0>        -0.7720
     11 C8         -2.0286   -0.6552    1.1807 C.2       1 <0>         0.7241
     12 O1         -1.4800   -0.3643    2.2261 O.2       1 <0>        -0.5547
     13 N3         -3.2931   -1.1217    1.1903 N.am      1 <0>        -0.5942
     14 C9         -4.0722   -1.5167    0.0027 C.3       1 <0>         0.0711
     15 C10        -5.1294   -2.5153    0.5362 C.3       1 <0>         0.0873
     16 H2         -6.0050   -2.5409   -0.1125 H         1 <0>         0.0811
     17 C11        -5.4767   -1.8943    1.9150 C.3       1 <0>        -0.1007
     18 C12        -4.1216   -1.3270    2.3874 C.3       1 <0>         0.0864
     19 H3         -3.6348   -2.0349    3.0582 H         1 <0>         0.0726
     20 C13        -4.3371   -0.0130    3.0930 C.2       1 <0>         0.4930
     21 O2         -3.9819    1.0275    2.5659 O.co2     1 <0>        -0.6797
     22 O3         -4.8666    0.0097    4.1910 O.co2     1 <0>        -0.6907
     23 O4         -4.5697   -3.8213    0.6881 O.3       1 <0>        -0.5494
     24 H4          1.0039    1.9031    0.0027 H         1 <0>         0.0716
     25 H5         -0.5459    1.8868   -0.8726 H         1 <0>         0.0640
     26 H6         -0.5289    1.8773    0.9072 H         1 <0>         0.0909
     27 H7          0.2444   -0.0644   -2.1377 H         1 <0>         0.1321
     28 H8          1.7648   -0.1951   -1.2215 H         1 <0>         0.1444
     29 H9         -1.3361   -2.4150   -0.6536 H         1 <0>         0.1476
     30 H10        -1.2426   -1.7179   -2.3036 H         1 <0>         0.1308
     31 H11        -0.4603   -4.5395   -1.3820 H         1 <0>         0.0990
     32 H12        -1.4689   -4.0675   -2.7890 H         1 <0>         0.1157
     33 H13         1.2734   -4.5783   -2.9593 H         1 <0>         0.1033
     34 H14         0.3958   -3.4985   -4.0847 H         1 <0>         0.1018
     35 H15         1.5096   -1.6891   -3.2316 H         1 <0>         0.1296
     36 H16         2.4130   -2.7716   -2.1344 H         1 <0>         0.1311
     37 H17        -1.8100   -0.7432   -0.8215 H         1 <0>         0.3876
     38 H18        -4.5599   -0.6469   -0.4375 H         1 <0>         0.0772
     39 H19        -3.4273   -2.0022   -0.7298 H         1 <0>         0.0553
     40 H20        -6.2145   -1.0995    1.8051 H         1 <0>         0.0909
     41 H21        -5.8329   -2.6600    2.6041 H         1 <0>         0.0912
     42 H22        -4.2481   -4.2098   -0.1370 H         1 <0>         0.3675
     43 H23         0.9688   -2.3715   -0.4663 H         1 <0>         0.4299
@<TRIPOS>BOND
     1    1    2 1
     2    1   24 1
     3    1   25 1
     4    1   26 1
     5    2    3 1
     6    2    4 1
     7    2   10 1
     8    4    5 1
     9    4   27 1
    10    4   28 1
    11    5    9 1
    12    5    6 1
    13    5   43 1
    14    6    7 1
    15    6   29 1
    16    6   30 1
    17    7    8 1
    18    7   31 1
    19    7   32 1
    20    8    9 1
    21    8   33 1
    22    8   34 1
    23    9   35 1
    24    9   36 1
    25   10   11 am
    26   10   37 1
    27   11   12 2
    28   11   13 am
    29   13   18 1
    30   13   14 1
    31   14   15 1
    32   14   38 1
    33   14   39 1
    34   15   16 1
    35   15   17 1
    36   15   23 1
    37   17   18 1
    38   17   40 1
    39   17   41 1
    40   18   19 1
    41   18   20 1
    42   20   21 2
    43   20   22 1
    44   23   42 1
@<TRIPOS>MOLECULE
ZINC56377058
   30    30     0     0     0
SMALL
USER_CHARGES

@<TRIPOS>ATOM
      1 C1         -0.0178    1.4608    0.0101 C.3       1 <0>         0.1025
      2 N1          0.0021   -0.0041    0.0020 N.am      1 <0>        -0.7477
      3 C2         -1.1558   -0.6938    0.0094 C.2       1 <0>         0.7112
      4 O1         -2.2169   -0.1002    0.0227 O.2       1 <0>        -0.5656
      5 N2         -1.1375   -2.0414    0.0020 N.am      1 <0>        -0.5327
      6 N3          0.0851   -2.7253   -0.0134 N.am      1 <0>        -0.5301
      7 C3          0.1034   -4.0729   -0.0208 C.2       1 <0>         0.5221
      8 O2         -0.9386   -4.6936   -0.0142 O.2       1 <0>        -0.5253
      9 C4          1.4185   -4.8086   -0.0373 C.3       1 <0>        -0.1497
     10 C5          1.1594   -6.3165   -0.0429 C.3       1 <0>         0.1280
     11 N4          2.4379   -7.0316   -0.0590 N.am      1 <0>        -0.6235
     12 C6          3.0621   -7.3745   -1.3239 C.3       1 <0>         0.0955
     13 C7          4.5785   -7.6505   -1.1488 C.3       1 <0>        -0.0803
     14 S1          4.5747   -8.1405    0.6280 S.3       1 <0>        -0.2173
     15 C8          3.0373   -7.3664    1.1004 C.2       1 <0>         0.5627
     16 O3          2.6193   -7.1825    2.2276 O.2       1 <0>        -0.4618
     17 H1          1.0048    1.8381    0.0023 H         1 <0>         0.0804
     18 H2         -0.5450    1.8219   -0.8730 H         1 <0>         0.0637
     19 H3         -0.5280    1.8123    0.9069 H         1 <0>         0.0638
     20 H4          0.8486   -0.4776   -0.0086 H         1 <0>         0.3923
     21 H5         -1.9709   -2.5378    0.0072 H         1 <0>         0.4448
     22 H6          0.9184   -2.2289   -0.0187 H         1 <0>         0.4200
     23 H7          1.9779   -4.5327   -0.9312 H         1 <0>         0.1054
     24 H8          1.9949   -4.5423    0.8487 H         1 <0>         0.1062
     25 H9          0.5999   -6.5923    0.8510 H         1 <0>         0.1005
     26 H10         0.5829   -6.5827   -0.9289 H         1 <0>         0.0983
     27 H11         2.5817   -8.2650   -1.7292 H         1 <0>         0.0909
     28 H12         2.9279   -6.5493   -2.0234 H         1 <0>         0.1001
     29 H13         4.9125   -8.4678   -1.7881 H         1 <0>         0.1323
     30 H14         5.1704   -6.7502   -1.3139 H         1 <0>         0.1133
@<TRIPOS>BOND
     1    1    2 1
     2    1   17 1
     3    1   18 1
     4    1   19 1
     5    2    3 am
     6    2   20 1
     7    3    4 2
     8    3    5 am
     9    5    6 1
    10    5   21 1
    11    6    7 am
    12    6   22 1
    13    7    8 2
    14    7    9 1
    15    9   10 1
    16    9   23 1
    17    9   24 1
    18   10   11 1
    19   10   25 1
    20   10   26 1
    21   11   15 am
    22   11   12 1
    23   12   13 1
    24   12   27 1
    25   12   28 1
    26   13   14 1
    27   13   29 1
    28   13   30 1
    29   14   15 1
    30   15   16 2
@<TRIPOS>MOLECULE
ZINC37481878
   33    33     0     0     0
SMALL
USER_CHARGES

@<TRIPOS>ATOM
      1 C1         -0.0189    1.5449    0.0105 C.3       1 <0>        -0.1314
      2 C2          1.4966    1.8770   -0.0022 C.3       1 <0>        -0.1269
      3 C3          2.1046    0.7503    0.8595 C.3       1 <0>         0.1179
      4 H1          2.2497    1.1020    1.8809 H         1 <0>         0.1089
      5 N1          1.1532   -0.3705    0.8470 N.am      1 <0>        -0.5960
      6 C4          0.0021   -0.0041    0.0020 C.3       1 <0>         0.0908
      7 C5          1.3083   -1.5398    1.4991 C.2       1 <0>         0.5321
      8 O1          2.3011   -1.7340    2.1680 O.2       1 <0>        -0.5226
      9 C6          0.2480   -2.6058    1.3971 C.3       1 <0>         0.1030
     10 N2          0.6490   -3.7708    2.1897 N.am      1 <0>        -0.6894
     11 C7         -0.1505   -4.8543    2.2473 C.2       1 <0>         0.4986
     12 O2         -1.2020   -4.8648    1.6429 O.2       1 <0>        -0.5309
     13 C8          0.2619   -6.0526    3.0626 C.3       1 <0>        -0.0247
     14 N3         -0.7716   -7.0918    2.9632 N.4       1 <0>        -0.6202
     15 C9          3.4236    0.3137    0.2758 C.2       1 <0>         0.5116
     16 O3          3.5696   -0.8282   -0.1058 O.2       1 <0>        -0.5290
     17 N4          4.4410    1.1922    0.1777 N.am      1 <0>        -0.8504
     18 H2         -0.4945    1.9242    0.9150 H         1 <0>         0.0859
     19 H3         -0.5116    1.9338   -0.8806 H         1 <0>         0.0971
     20 H4          1.8908    1.8413   -1.0178 H         1 <0>         0.0868
     21 H5          1.6817    2.8512    0.4504 H         1 <0>         0.1000
     22 H6         -0.9211   -0.3983    0.4268 H         1 <0>         0.0865
     23 H7          0.1428   -0.3760   -1.0129 H         1 <0>         0.0801
     24 H8         -0.6967   -2.2161    1.7762 H         1 <0>         0.1113
     25 H9          0.1275   -2.8998    0.3544 H         1 <0>         0.1120
     26 H10         1.4899   -3.7624    2.6732 H         1 <0>         0.4229
     27 H11         1.2066   -6.4423    2.6835 H         1 <0>         0.1670
     28 H12         0.3824   -5.7586    4.1053 H         1 <0>         0.1668
     29 H13        -1.6461   -6.7310    3.3142 H         1 <0>         0.4425
     30 H14        -0.8832   -7.3639    1.9980 H         1 <0>         0.4429
     31 H15         4.3242    2.1056    0.4829 H         1 <0>         0.4036
     32 H16         5.2899    0.9112   -0.1980 H         1 <0>         0.4069
     33 H17        -0.4955   -7.8942    3.5091 H         1 <0>         0.4462
@<TRIPOS>BOND
     1    1    6 1
     2    1    2 1
     3    1   18 1
     4    1   19 1
     5    2    3 1
     6    2   20 1
     7    2   21 1
     8    3    4 1
     9    3    5 1
    10    3   15 1
    11    5    6 1
    12    5    7 am
    13    6   22 1
    14    6   23 1
    15    7    8 2
    16    7    9 1
    17    9   10 1
    18    9   24 1
    19    9   25 1
    20   10   11 am
    21   10   26 1
    22   11   12 2
    23   11   13 1
    24   13   14 1
    25   13   27 1
    26   13   28 1
    27   14   29 1
    28   14   30 1
    29   14   33 1
    30   15   16 2
    31   15   17 am
    32   17   31 1
    33   17   32 1
@<TRIPOS>MOLECULE
ZINC37820398
   45    46     0     0     0
SMALL
USER_CHARGES

@<TRIPOS>ATOM
      1 C1          0.4367    1.5386   -0.1790 C.3       1 <0>        -0.1356
      2 C2          1.7955    2.0543    0.3038 C.3       1 <0>        -0.1506
      3 C3          2.0969    1.4666    1.6841 C.3       1 <0>        -0.0057
      4 N1          2.1298    0.0016    1.5995 N.4       1 <0>        -0.4915
      5 C4          0.8092   -0.5044    1.2064 C.3       1 <0>         0.0056
      6 H1          0.0607   -0.1567    1.9185 H         1 <0>         0.1597
      7 C5          0.4583    0.0075   -0.1923 C.3       1 <0>        -0.1373
      8 C6          0.8315   -2.0112    1.1976 C.2       1 <0>         0.5023
      9 O1          1.8790   -2.6012    1.0377 O.2       1 <0>        -0.5235
     10 N2         -0.3125   -2.7031    1.3674 N.am      1 <0>        -0.5845
     11 C7         -1.6042   -2.0070    1.4428 C.3       1 <0>         0.0910
     12 C8         -2.3222   -2.4374    2.7258 C.3       1 <0>        -0.1374
     13 C9         -2.4279   -3.9638    2.7589 C.3       1 <0>        -0.1257
     14 C10        -1.0245   -4.5741    2.7628 C.3       1 <0>        -0.1060
     15 H2         -0.4716   -4.2096    3.6286 H         1 <0>         0.0868
     16 C11        -0.2924   -4.1683    1.4746 C.3       1 <0>         0.1119
     17 C12        -1.1309   -6.0989    2.8298 C.3       1 <0>         0.1169
     18 N3         -1.7272   -6.4911    4.1092 N.pl3     1 <0>        -1.1246
     19 S1         -2.3051   -8.0291    4.3165 S.o2      1 <0>         2.7987
     20 O2         -2.7882   -8.1050    5.6508 O.2       1 <0>        -0.9770
     21 O3         -3.1270   -8.3092    3.1917 O.2       1 <0>        -0.9764
     22 N4         -1.0092   -9.0558    4.2233 N.pl3     1 <0>        -1.2586
     23 H3         -0.3457    1.8863    0.4956 H         1 <0>         0.0860
     24 H4          0.2430    1.9092   -1.1856 H         1 <0>         0.1021
     25 H5          2.5711    1.7495   -0.3989 H         1 <0>         0.0917
     26 H6          1.7697    3.1420    0.3690 H         1 <0>         0.1176
     27 H7          3.0635    1.8319    2.0308 H         1 <0>         0.1407
     28 H8          1.3209    1.7723    2.3859 H         1 <0>         0.1325
     29 H9          2.8143   -0.2794    0.9136 H         1 <0>         0.4352
     30 H10        -0.5233   -0.3679   -0.4815 H         1 <0>         0.1158
     31 H11         1.2061   -0.3399   -0.9052 H         1 <0>         0.0989
     32 H12        -1.4383   -0.9299    1.4607 H         1 <0>         0.0853
     33 H13        -2.2125   -2.2708    0.5776 H         1 <0>         0.0922
     34 H14        -1.7571   -2.0930    3.5919 H         1 <0>         0.0703
     35 H15        -3.3216   -2.0030    2.7467 H         1 <0>         0.0905
     36 H16        -2.9602   -4.2715    3.6590 H         1 <0>         0.0803
     37 H17        -2.9717   -4.3093    1.8797 H         1 <0>         0.0776
     38 H18        -0.7959   -4.6048    0.6120 H         1 <0>         0.0890
     39 H19         0.7394   -4.5177    1.5135 H         1 <0>         0.1045
     40 H20        -1.7574   -6.4557    2.0124 H         1 <0>         0.0896
     41 H21        -0.1364   -6.5367    2.7431 H         1 <0>         0.0707
     42 H22        -1.7836   -5.8499    4.8348 H         1 <0>         0.4208
     43 H23        -1.0145   -9.8897    4.7187 H         1 <0>         0.4246
     44 H24        -0.2448   -8.8233    3.6732 H         1 <0>         0.4130
     45 H25         2.3812   -0.3806    2.4988 H         1 <0>         0.4328
@<TRIPOS>BOND
     1    1    7 1
     2    1    2 1
     3    1   23 1
     4    1   24 1
     5    2    3 1
     6    2   25 1
     7    2   26 1
     8    3    4 1
     9    3   27 1
    10    3   28 1
    11    4    5 1
    12    4   29 1
    13    4   45 1
    14    5    6 1
    15    5    7 1
    16    5    8 1
    17    7   30 1
    18    7   31 1
    19    8    9 2
    20    8   10 am
    21   10   16 1
    22   10   11 1
    23   11   12 1
    24   11   32 1
    25   11   33 1
    26   12   13 1
    27   12   34 1
    28   12   35 1
    29   13   14 1
    30   13   36 1
    31   13   37 1
    32   14   15 1
    33   14   16 1
    34   14   17 1
    35   16   38 1
    36   16   39 1
    37   17   18 1
    38   17   40 1
    39   17   41 1
    40   18   19 1
    41   18   42 1
    42   19   20 2
    43   19   21 2
    44   19   22 1
    45   22   43 1
    46   22   44 1
@<TRIPOS>MOLECULE
ZINC43708530
   41    42     0     0     0
SMALL
USER_CHARGES

@<TRIPOS>ATOM
      1 C1         -0.0187    1.5258    0.0104 C.3       1 <0>        -0.1642
      2 C2          0.0021   -0.0041    0.0020 C.3       1 <0>         0.1798
      3 H1          0.5293   -0.3651    0.8851 H         1 <0>         0.1100
      4 C3          0.7074   -0.4901   -1.2379 C.ar      1 <0>        -0.0428
      5 C4          0.0376   -0.5216   -2.4467 C.ar      1 <0>        -0.1416
      6 C5          0.6846   -0.9674   -3.5840 C.ar      1 <0>        -0.0151
      7 C6          2.0016   -1.3812   -3.5126 C.ar      1 <0>        -0.6721
      8 C7          2.6718   -1.3488   -2.3040 C.ar      1 <0>        -0.0056
      9 C8          2.0261   -0.8990   -1.1675 C.ar      1 <0>        -0.1248
     10 S1          2.8260   -1.9506   -4.9621 S.o2      1 <0>         2.7002
     11 O1          3.8824   -2.7938   -4.5237 O.2       1 <0>        -0.9568
     12 O2          1.8151   -2.3975   -5.8552 O.2       1 <0>        -0.9578
     13 N1          3.5354   -0.6330   -5.6713 N.pl3     1 <0>        -1.2460
     14 N2         -1.3723   -0.5112    0.0124 N.am      1 <0>        -0.7194
     15 C9         -2.0286   -0.6552    1.1807 C.2       1 <0>         0.5204
     16 O3         -1.4814   -0.3650    2.2235 O.2       1 <0>        -0.4804
     17 C10        -3.4424   -1.1768    1.1914 C.3       1 <0>         0.0514
     18 H2         -4.0626   -0.5609    0.5402 H         1 <0>         0.1147
     19 C11        -3.4572   -2.6239    0.6924 C.3       1 <0>        -0.0387
     20 N3         -4.8281   -3.1485    0.7589 N.4       1 <0>        -0.5030
     21 C12        -5.3017   -3.1037    2.1491 C.3       1 <0>        -0.0474
     22 C13        -5.2836   -1.6558    2.6454 C.3       1 <0>         0.0335
     23 O4         -3.9582   -1.1316    2.5248 O.3       1 <0>        -0.3270
     24 H3          1.0039    1.9031    0.0027 H         1 <0>         0.0790
     25 H4         -0.5459    1.8868   -0.8726 H         1 <0>         0.0650
     26 H5         -0.5289    1.8773    0.9072 H         1 <0>         0.0722
     27 H6         -0.9914   -0.1983   -2.5024 H         1 <0>         0.1301
     28 H7          0.1611   -0.9927   -4.5283 H         1 <0>         0.1473
     29 H8          3.7006   -1.6725   -2.2481 H         1 <0>         0.1501
     30 H9          2.5507   -0.8702   -0.2240 H         1 <0>         0.1408
     31 H10         4.3516   -0.7392   -6.1845 H         1 <0>         0.4255
     32 H11         3.1347    0.2450   -5.5735 H         1 <0>         0.4177
     33 H12        -1.8100   -0.7432   -0.8215 H         1 <0>         0.4005
     34 H13        -3.1049   -2.6566   -0.3385 H         1 <0>         0.1496
     35 H14        -2.8046   -3.2314    1.3194 H         1 <0>         0.1501
     36 H15        -5.4323   -2.5854    0.1793 H         1 <0>         0.4305
     37 H16        -6.3188   -3.4926    2.1995 H         1 <0>         0.1519
     38 H17        -4.6485   -3.7110    2.7756 H         1 <0>         0.1446
     39 H18        -5.9674   -1.0564    2.0444 H         1 <0>         0.0864
     40 H19        -5.5935   -1.6251    3.6900 H         1 <0>         0.1503
     41 H20        -4.8397   -4.1024    0.4301 H         1 <0>         0.4410
@<TRIPOS>BOND
     1    1    2 1
     2    1   24 1
     3    1   25 1
     4    1   26 1
     5    2    3 1
     6    2    4 1
     7    2   14 1
     8    4    9 ar
     9    4    5 ar
    10    5    6 ar
    11    5   27 1
    12    6    7 ar
    13    6   28 1
    14    7    8 ar
    15    7   10 1
    16    8    9 ar
    17    8   29 1
    18    9   30 1
    19   10   11 2
    20   10   12 2
    21   10   13 1
    22   13   31 1
    23   13   32 1
    24   14   15 am
    25   14   33 1
    26   15   16 2
    27   15   17 1
    28   17   18 1
    29   17   23 1
    30   17   19 1
    31   19   20 1
    32   19   34 1
    33   19   35 1
    34   20   21 1
    35   20   36 1
    36   20   41 1
    37   21   22 1
    38   21   37 1
    39   21   38 1
    40   22   23 1
    41   22   39 1
    42   22   40 1
@<TRIPOS>MOLECULE
ZINC61317555
   44    44     0     0     0
SMALL
USER_CHARGES

@<TRIPOS>ATOM
      1 C1          0.8805   -1.0998   -0.6128 C.3       1 <0>        -0.1955
      2 C2         -0.0132   -0.0011   -0.0341 C.3       1 <0>         0.0370
      3 C3          0.2436    1.3104   -0.7790 C.3       1 <0>        -0.1927
      4 C4         -1.4594   -0.3942   -0.1929 C.2       1 <0>         0.5113
      5 O1         -2.1600   -0.5373    0.7866 O.2       1 <0>        -0.5274
      6 N1         -1.9741   -0.5867   -1.4235 N.am      1 <0>        -0.5815
      7 C5         -1.1114   -0.5379   -2.6119 C.3       1 <0>         0.0682
      8 C6         -1.7011    0.4649   -3.6085 C.3       1 <0>        -0.1398
      9 C7         -3.1556    0.0904   -3.9027 C.3       1 <0>        -0.1251
     10 C8         -3.9725    0.1566   -2.6102 C.3       1 <0>        -0.1067
     11 H1         -3.9127    1.1618   -2.1931 H         1 <0>         0.0875
     12 C9         -3.4076   -0.8553   -1.6018 C.3       1 <0>         0.1127
     13 C10        -5.4332   -0.1852   -2.9113 C.3       1 <0>         0.1171
     14 N2         -6.0053    0.8428   -3.7842 N.pl3     1 <0>        -1.1246
     15 S1         -7.4333    0.5582   -4.5730 S.o2      1 <0>         2.7989
     16 O2         -7.7334    1.7369   -5.3077 O.2       1 <0>        -0.9770
     17 O3         -7.3085   -0.7145   -5.1925 O.2       1 <0>        -0.9766
     18 N3         -8.6098    0.4086   -3.4172 N.pl3     1 <0>        -1.2586
     19 N4          0.2918    0.1779    1.3917 N.4       1 <0>        -0.4912
     20 C11         1.7072    0.5387    1.5482 C.3       1 <0>        -0.0539
     21 H2          1.9056   -0.7357   -0.6816 H         1 <0>         0.1024
     22 H3          0.8483   -1.9743    0.0372 H         1 <0>         0.0915
     23 H4          0.5242   -1.3723   -1.6063 H         1 <0>         0.1203
     24 H5         -0.1327    1.2287   -1.7988 H         1 <0>         0.1195
     25 H6         -0.2682    2.1253   -0.2671 H         1 <0>         0.0905
     26 H7          1.3146    1.5115   -0.8020 H         1 <0>         0.1018
     27 H8         -0.1095   -0.2201   -2.3232 H         1 <0>         0.1059
     28 H9         -1.0656   -1.5255   -3.0709 H         1 <0>         0.0926
     29 H10        -1.6627    1.4672   -3.1820 H         1 <0>         0.0724
     30 H11        -1.1249    0.4403   -4.5334 H         1 <0>         0.0917
     31 H12        -3.5701    0.7880   -4.6304 H         1 <0>         0.0807
     32 H13        -3.1956   -0.9214   -4.3061 H         1 <0>         0.0777
     33 H14        -3.5452   -1.8682   -1.9802 H         1 <0>         0.0891
     34 H15        -3.9212   -0.7469   -0.6465 H         1 <0>         0.1045
     35 H16        -5.4846   -1.1538   -3.4086 H         1 <0>         0.0895
     36 H17        -5.9966   -0.2251   -1.9791 H         1 <0>         0.0706
     37 H18        -5.5477    1.6902   -3.9002 H         1 <0>         0.4210
     38 H19        -9.5227    0.6677   -3.6180 H         1 <0>         0.4246
     39 H20        -8.3859    0.0620   -2.5393 H         1 <0>         0.4130
     40 H21        -0.2865    0.9132    1.7697 H         1 <0>         0.4344
     41 H22         1.9063    1.4681    1.0146 H         1 <0>         0.1273
     42 H23         1.9335    0.6715    2.6061 H         1 <0>         0.1336
     43 H24         2.3319   -0.2557    1.1399 H         1 <0>         0.1278
     44 H25         0.1074   -0.6824    1.8857 H         1 <0>         0.4353
@<TRIPOS>BOND
     1    1    2 1
     2    1   21 1
     3    1   22 1
     4    1   23 1
     5    2    3 1
     6    2    4 1
     7    2   19 1
     8    3   24 1
     9    3   25 1
    10    3   26 1
    11    4    5 2
    12    4    6 am
    13    6   12 1
    14    6    7 1
    15    7    8 1
    16    7   27 1
    17    7   28 1
    18    8    9 1
    19    8   29 1
    20    8   30 1
    21    9   10 1
    22    9   31 1
    23    9   32 1
    24   10   11 1
    25   10   12 1
    26   10   13 1
    27   12   33 1
    28   12   34 1
    29   13   14 1
    30   13   35 1
    31   13   36 1
    32   14   15 1
    33   14   37 1
    34   15   16 2
    35   15   17 2
    36   15   18 1
    37   18   38 1
    38   18   39 1
    39   19   20 1
    40   19   40 1
    41   19   44 1
    42   20   41 1
    43   20   42 1
    44   20   43 1
@<TRIPOS>MOLECULE
ZINC63883349
   32    34     0     0     0
SMALL
USER_CHARGES

@<TRIPOS>ATOM
      1 C1         -0.0189    1.5406    0.0105 C.3       1 <0>        -0.1225
      2 C2          1.4904    1.8764   -0.0021 C.3       1 <0>        -0.1616
      3 C3          2.1475    0.6541    0.6002 C.2       1 <0>         0.5200
      4 O1          3.2823    0.6144    1.0264 O.2       1 <0>        -0.5113
      5 N1          1.2905   -0.3814    0.5948 N.am      1 <0>        -0.7411
      6 C4          0.0021   -0.0041    0.0020 C.3       1 <0>         0.1151
      7 H1         -0.8187   -0.3957    0.6029 H         1 <0>         0.1079
      8 C5         -0.0942   -0.5270   -1.4326 C.3       1 <0>         0.0856
      9 N2          0.0470   -1.9852   -1.4314 N.pl3     1 <0>        -0.6121
     10 C6         -0.0067   -2.6811   -2.6138 C.2       1 <0>         0.5854
     11 N3         -0.1792   -2.1008   -3.8084 N.2       1 <0>        -0.6021
     12 C7         -0.2168   -2.8317   -4.9325 C.cat     1 <0>         0.7314
     13 N4         -0.3945   -4.1244   -5.0177 N.pl3     1 <0>        -0.6586
     14 C8         -0.6346   -4.8978   -3.7994 C.3       1 <0>         0.2094
     15 H2         -1.6997   -4.9674   -3.5785 H         1 <0>         0.1955
     16 C9          0.1248   -4.1367   -2.7042 C.2       1 <0>        -0.2601
     17 C10         0.8085   -5.0752   -2.0649 C.2       1 <0>         0.0980
     18 N5          0.7715   -6.2318   -2.7750 N.2       1 <0>        -0.1230
     19 N6         -0.0007   -6.2124   -3.7760 N.2       1 <0>        -0.0910
     20 N7         -0.0515   -2.1493   -6.1213 N.pl3     1 <0>        -0.7831
     21 H3         -0.4952    1.9193    0.9148 H         1 <0>         0.1002
     22 H4         -0.5124    1.9289   -0.8804 H         1 <0>         0.1016
     23 H5          1.8381    2.0322   -1.0234 H         1 <0>         0.1095
     24 H6          1.6904    2.7569    0.6085 H         1 <0>         0.1133
     25 H7          1.4972   -1.2647    0.9385 H         1 <0>         0.4085
     26 H8         -1.0622   -0.2560   -1.8539 H         1 <0>         0.1150
     27 H9          0.7003   -0.0856   -2.0343 H         1 <0>         0.1048
     28 H10         0.1784   -2.4590   -0.5952 H         1 <0>         0.4328
     29 H11         1.3181   -4.9402   -1.1223 H         1 <0>         0.2146
     30 H12         0.0835   -1.1887   -6.1144 H         1 <0>         0.4441
     31 H13        -0.0703   -2.6303   -6.9634 H         1 <0>         0.4317
     32 H14        -0.3676   -4.5664   -5.8807 H         1 <0>         0.4419
@<TRIPOS>BOND
     1    1    6 1
     2    1    2 1
     3    1   21 1
     4    1   22 1
     5    2    3 1
     6    2   23 1
     7    2   24 1
     8    3    4 2
     9    3    5 am
    10    5    6 1
    11    5   25 1
    12    6    7 1
    13    6    8 1
    14    8    9 1
    15    8   26 1
    16    8   27 1
    17    9   10 1
    18    9   28 1
    19   10   16 1
    20   10   11 2
    21   11   12 1
    22   12   13 2
    23   12   20 1
    24   13   14 1
    25   13   32 1
    26   14   15 1
    27   14   19 1
    28   14   16 1
    29   16   17 2
    30   17   18 1
    31   17   29 1
    32   18   19 2
    33   20   30 1
    34   20   31 1
@<TRIPOS>MOLECULE
ZINC05288100
   44    45     0     0     0
SMALL
USER_CHARGES
N-[[3-[(5-chloro-2-pyridyl)amino]-1-methyl-3-oxo-propylidene]amino]cyclohexanecarboxamide
@<TRIPOS>ATOM
      1 C1          0.9819    1.8045   -6.2862 C.3       1 <0>        -0.1344
      2 C2         -0.3735    1.2064   -6.0107 C.2       1 <0>         0.2855
      3 N1         -0.4737   -0.0252   -5.6759 N.pl3     1 <0>        -0.4560
      4 N2         -1.7379   -0.6111   -5.5308 N.am      1 <0>        -0.4660
      5 C3         -1.8441   -1.9303   -5.2764 C.2       1 <0>         0.4119
      6 O1         -0.8450   -2.6103   -5.1729 O.2       1 <0>        -0.5779
      7 C4         -3.2040   -2.5605   -5.1203 C.3       1 <0>        -0.0812
      8 C5         -3.0439   -4.0560   -4.8393 C.3       1 <0>        -0.1034
      9 C6         -4.4246   -4.6959   -4.6809 C.3       1 <0>        -0.1244
     10 C7         -5.1628   -4.0341   -3.5155 C.3       1 <0>        -0.1326
     11 C8         -5.3229   -2.5387   -3.7966 C.3       1 <0>        -0.2541
     12 C9         -3.9422   -1.8988   -3.9549 C.3       1 <0>        -0.1453
     13 C10        -1.6111    2.0580   -6.1293 C.2       1 <0>        -0.4622
     14 C11        -2.8256    1.2271   -5.8043 C.2       1 <0>         0.2036
     15 O2         -2.6987    0.0585   -5.5058 O.2       1 <0>        -0.0128
     16 N3         -4.0529    1.7827   -5.8454 N.am      1 <0>        -0.6244
     17 C12        -5.1836    0.9910   -5.6468 C.ar      1 <0>         0.3472
     18 C13        -6.4487    1.5468   -5.8004 C.ar      1 <0>        -0.1998
     19 C14        -7.5625    0.7493   -5.6056 C.ar      1 <0>        -0.0403
     20 C15        -7.3715   -0.5805   -5.2516 C.ar      1 <0>        -0.1297
     21 C16        -6.0849   -1.0644   -5.1109 C.ar      1 <0>        -0.1223
     22 N4         -5.0422   -0.2806   -5.3087 N.ar      1 <0>        -0.4688
     23 Cl1        -8.7346   -1.6230   -4.9894 Cl        1 <0>        -0.0619
     24 H1          1.7566    1.0356   -6.1495 H         1 <0>         0.0773
     25 H2          1.1640    2.6364   -5.5899 H         1 <0>         0.1032
     26 H3          1.0145    2.1781   -7.3203 H         1 <0>         0.1042
     27 H4         -2.6440    0.0056   -5.6246 H         1 <0>         0.3364
     28 H5         -3.7690   -2.4135   -6.0526 H         1 <0>         0.0931
     29 H6         -2.5132   -4.5317   -5.6772 H         1 <0>         0.0653
     30 H7         -2.4667   -4.1953   -3.9133 H         1 <0>         0.0662
     31 H8         -5.0017   -4.5565   -5.6069 H         1 <0>         0.0640
     32 H9         -4.3095   -5.7710   -4.4788 H         1 <0>         0.0684
     33 H10        -6.1555   -4.4942   -3.4017 H         1 <0>         0.0689
     34 H11        -4.5857   -4.1735   -2.5895 H         1 <0>         0.0662
     35 H12        -5.8999   -2.3994   -4.7227 H         1 <0>         0.2652
     36 H13        -5.8536   -2.0629   -2.9588 H         1 <0>         0.0851
     37 H14        -3.3651   -2.0381   -3.0289 H         1 <0>         0.0546
     38 H15        -4.0573   -0.8237   -4.1570 H         1 <0>         0.1446
     39 H16        -1.5251    3.1162   -6.4170 H         1 <0>         0.1601
     40 H17         0.4330   -0.6233   -5.5021 H         1 <0>         0.4490
     41 H18        -4.1627    2.8606   -6.0356 H         1 <0>         0.4213
     42 H19        -6.5606    2.5859   -6.0724 H         1 <0>         0.1389
     43 H20        -8.5576    1.1524   -5.7221 H         1 <0>         0.1414
     44 H21        -5.9308   -2.0974   -4.8358 H         1 <0>         0.3759
@<TRIPOS>BOND
     1    1   24 1
     2    1   25 1
     3    1   26 1
     4    1    2 1
     5    2   13 2
     6    2    3 1
     7    3    4 1
     8    3   40 1
     9    4    5 am
    10    4   27 1
    11    5    6 2
    12    5    7 1
    13    7   12 1
    14    7    8 1
    15    7   28 1
    16    8    9 1
    17    8   29 1
    18    8   30 1
    19    9   10 1
    20    9   31 1
    21    9   32 1
    22   10   11 1
    23   10   33 1
    24   10   34 1
    25   11   12 1
    26   11   35 1
    27   11   36 1
    28   12   37 1
    29   12   38 1
    30   13   14 1
    31   13   39 1
    32   14   15 2
    33   14   16 am
    34   16   17 1
    35   16   41 1
    36   17   22 ar
    37   17   18 ar
    38   18   19 ar
    39   18   42 1
    40   19   20 ar
    41   19   43 1
    42   20   21 ar
    43   20   23 1
    44   21   22 ar
    45   21   44 1
@<TRIPOS>MOLECULE
ZINC44970300
   48    50     0     0     0
SMALL
USER_CHARGES

@<TRIPOS>ATOM
      1 C1         -0.0187    1.5258    0.0104 C.3       1 <0>        -0.1648
      2 C2          0.0021   -0.0041    0.0020 C.3       1 <0>         0.1645
      3 H1          0.5123   -0.3556   -0.8948 H         1 <0>         0.0934
      4 C3         -1.4333   -0.5336    0.0129 C.3       1 <0>        -0.0497
      5 C4         -1.4159   -2.0348   -0.1192 C.2       1 <0>        -0.0099
      6 C5         -1.3689   -2.9135    0.8982 C.2       1 <0>        -0.2062
      7 C6         -1.3695   -4.2054    0.3239 C.2       1 <0>        -0.2137
      8 C7         -1.4167   -4.0389   -1.0100 C.2       1 <0>        -0.0396
      9 O1         -1.4506   -2.7222   -1.2724 O.3       1 <0>        -0.1744
     10 N1          0.7106   -0.4894    1.1889 N.am      1 <0>        -0.7391
     11 C8          2.0538   -0.5998    1.1737 C.2       1 <0>         0.7085
     12 O2          2.6774   -0.2967    0.1749 O.2       1 <0>        -0.5868
     13 N2          2.7056   -1.0463    2.2656 N.am      1 <0>        -0.7413
     14 C9          4.1656   -1.1663    2.2490 C.3       1 <0>         0.2063
     15 H2          4.5896   -0.3607    1.6497 H         1 <0>         0.0978
     16 C10         4.5596   -2.5147    1.6428 C.3       1 <0>        -0.1594
     17 C11         4.6931   -1.0755    3.6578 C.ar      1 <0>        -0.1110
     18 C12         4.0187   -1.7039    4.6889 C.ar      1 <0>        -0.0825
     19 C13         4.4992   -1.6232    5.9811 C.ar      1 <0>        -0.1460
     20 C14         5.6612   -0.9099    6.2441 C.ar      1 <0>         0.1616
     21 C15         6.3360   -0.2804    5.2066 C.ar      1 <0>        -0.1180
     22 C16         5.8534   -0.3689    3.9158 C.ar      1 <0>        -0.0685
     23 C17         7.5971    0.4927    5.4923 C.3       1 <0>        -0.0788
     24 C18         7.4940    1.1476    6.8702 C.3       1 <0>        -0.1392
     25 C19         7.0343    0.1361    7.8853 C.2       1 <0>         0.5207
     26 O3          7.4626    0.1873    9.0189 O.2       1 <0>        -0.5243
     27 N3          6.1534   -0.8244    7.5500 N.am      1 <0>        -0.6648
     28 H3          1.0039    1.9031    0.0027 H         1 <0>         0.0668
     29 H4         -0.5459    1.8868   -0.8726 H         1 <0>         0.0689
     30 H5         -0.5289    1.8773    0.9072 H         1 <0>         0.0587
     31 H6         -1.9156   -0.2570    0.9504 H         1 <0>         0.0996
     32 H7         -1.9862   -0.1019   -0.8214 H         1 <0>         0.1007
     33 H8         -1.3364   -2.6773    1.9516 H         1 <0>         0.1434
     34 H9         -1.3376   -5.1456    0.8545 H         1 <0>         0.1469
     35 H10        -1.4294   -4.8300   -1.7452 H         1 <0>         0.2020
     36 H11         0.2131   -0.7312    1.9857 H         1 <0>         0.3938
     37 H12         2.2081   -1.2881    3.0624 H         1 <0>         0.3939
     38 H13         4.1356   -3.3203    2.2422 H         1 <0>         0.0574
     39 H14         4.1781   -2.5803    0.6239 H         1 <0>         0.0660
     40 H15         5.6459   -2.6040    1.6305 H         1 <0>         0.0679
     41 H16         3.1149   -2.2583    4.4832 H         1 <0>         0.1263
     42 H17         3.9718   -2.1137    6.7859 H         1 <0>         0.1307
     43 H18         6.3801    0.1174    3.1080 H         1 <0>         0.1338
     44 H19         8.4504   -0.1853    5.4754 H         1 <0>         0.0856
     45 H20         7.7306    1.2633    4.7330 H         1 <0>         0.0945
     46 H21         8.4706    1.5344    7.1612 H         1 <0>         0.1114
     47 H22         6.7787    1.9690    6.8280 H         1 <0>         0.1050
     48 H23         5.8576   -1.4615    8.2189 H         1 <0>         0.4117
@<TRIPOS>BOND
     1    1    2 1
     2    1   28 1
     3    1   29 1
     4    1   30 1
     5    2    3 1
     6    2    4 1
     7    2   10 1
     8    4    5 1
     9    4   31 1
    10    4   32 1
    11    5    9 1
    12    5    6 2
    13    6    7 1
    14    6   33 1
    15    7    8 2
    16    7   34 1
    17    8    9 1
    18    8   35 1
    19   10   11 am
    20   10   36 1
    21   11   12 2
    22   11   13 am
    23   13   14 1
    24   13   37 1
    25   14   15 1
    26   14   16 1
    27   14   17 1
    28   16   38 1
    29   16   39 1
    30   16   40 1
    31   17   22 ar
    32   17   18 ar
    33   18   19 ar
    34   18   41 1
    35   19   20 ar
    36   19   42 1
    37   20   27 1
    38   20   21 ar
    39   21   22 ar
    40   21   23 1
    41   22   43 1
    42   23   24 1
    43   23   44 1
    44   23   45 1
    45   24   25 1
    46   24   46 1
    47   24   47 1
    48   25   26 2
    49   25   27 am
    50   27   48 1
@<TRIPOS>MOLECULE
ZINC10918483
   39    40     0     0     0
SMALL
USER_CHARGES

@<TRIPOS>ATOM
      1 C1         -0.4854    1.0789    0.0645 C.3       1 <0>        -0.1473
      2 C2         -0.1712   -0.4079   -0.1136 C.3       1 <0>        -0.1289
      3 C3          0.7413   -0.5945   -1.3274 C.3       1 <0>         0.1877
      4 H1          1.6296    0.0268   -1.2131 H         1 <0>         0.1039
      5 C4          1.1502   -2.0413   -1.4308 C.ar      1 <0>        -0.0897
      6 C5          0.2861   -2.9653   -1.9882 C.ar      1 <0>        -0.1039
      7 C6          0.6605   -4.2924   -2.0833 C.ar      1 <0>        -0.1051
      8 C7          1.9003   -4.6959   -1.6205 C.ar      1 <0>        -0.0332
      9 C8          2.7646   -3.7707   -1.0627 C.ar      1 <0>        -0.1039
     10 C9          2.3914   -2.4429   -0.9733 C.ar      1 <0>        -0.0922
     11 Cl1         2.3710   -6.3627   -1.7391 Cl        1 <0>        -0.0650
     12 N1          0.0238   -0.2018   -2.5428 N.am      1 <0>        -0.7212
     13 C10        -0.0012    1.0911   -2.9225 C.2       1 <0>         0.5700
     14 O1          0.5719    1.9316   -2.2564 O.2       1 <0>        -0.5227
     15 C11        -0.7237    1.4866   -4.1464 C.ar      1 <0>        -0.1939
     16 C12        -1.3880    0.5222   -4.9102 C.ar      1 <0>         0.0058
     17 C13        -2.0614    0.8943   -6.0509 C.ar      1 <0>        -0.2008
     18 C14        -2.0814    2.2296   -6.4450 C.ar      1 <0>         0.3059
     19 C15        -1.4207    3.1920   -5.6869 C.ar      1 <0>        -0.1340
     20 C16        -0.7505    2.8271   -4.5415 C.ar      1 <0>         0.0503
     21 N2         -1.4436    4.6103   -6.1100 N.pl3     1 <0>         0.0411
     22 O2         -0.4630    5.3015   -5.9608 O.2       1 <0>        -0.1396
     23 O3         -2.4430    5.0774   -6.6048 O.3       1 <0>        -0.1743
     24 N3         -2.7625    2.6023   -7.5985 N.pl3     1 <0>        -0.8414
     25 H2          0.4421    1.6303    0.2190 H         1 <0>         0.0628
     26 H3         -0.9866    1.4537   -0.8279 H         1 <0>         0.0556
     27 H4         -1.1355    1.2118    0.9292 H         1 <0>         0.0502
     28 H5          0.3300   -0.7827    0.7788 H         1 <0>         0.0759
     29 H6         -1.0986   -0.9593   -0.2681 H         1 <0>         0.0662
     30 H7         -0.6818   -2.6502   -2.3491 H         1 <0>         0.1292
     31 H8         -0.0147   -5.0142   -2.5184 H         1 <0>         0.1363
     32 H9          3.7324   -4.0852   -0.7010 H         1 <0>         0.1376
     33 H10         3.0678   -1.7198   -0.5423 H         1 <0>         0.1368
     34 H11        -0.4334   -0.8722   -3.0741 H         1 <0>         0.3977
     35 H12        -1.3722   -0.5138   -4.6054 H         1 <0>         0.1424
     36 H13        -2.5747    0.1498   -6.6413 H         1 <0>         0.1526
     37 H14        -0.2421    3.5750   -3.9512 H         1 <0>         0.1611
     38 H15        -3.3161    1.9567   -8.0649 H         1 <0>         0.4140
     39 H16        -2.6840    3.5080   -7.9369 H         1 <0>         0.4140
@<TRIPOS>BOND
     1    1    2 1
     2    1   25 1
     3    1   26 1
     4    1   27 1
     5    2    3 1
     6    2   28 1
     7    2   29 1
     8    3    4 1
     9    3    5 1
    10    3   12 1
    11    5   10 ar
    12    5    6 ar
    13    6    7 ar
    14    6   30 1
    15    7    8 ar
    16    7   31 1
    17    8    9 ar
    18    8   11 1
    19    9   10 ar
    20    9   32 1
    21   10   33 1
    22   12   13 am
    23   12   34 1
    24   13   14 2
    25   13   15 1
    26   15   20 ar
    27   15   16 ar
    28   16   17 ar
    29   16   35 1
    30   17   18 ar
    31   17   36 1
    32   18   19 ar
    33   18   24 1
    34   19   20 ar
    35   19   21 1
    36   20   37 1
    37   21   22 2
    38   21   23 1
    39   24   38 1
    40   24   39 1
@<TRIPOS>MOLECULE
ZINC66075467
   52    54     0     0     0
SMALL
USER_CHARGES

@<TRIPOS>ATOM
      1 C1         -0.0187    1.5258    0.0104 C.3       1 <0>        -0.1633
      2 C2          0.0021   -0.0041    0.0020 C.3       1 <0>         0.1324
      3 H1          0.5293   -0.3651    0.8851 H         1 <0>         0.1208
      4 C3         -1.4117   -0.5257    0.0127 C.2       1 <0>         0.5204
      5 O1         -1.8076   -1.2235   -0.8970 O.2       1 <0>        -0.4950
      6 N1         -2.2363   -0.2169    1.0331 N.am      1 <0>        -0.6459
      7 C4         -3.5447   -0.6996    1.0430 C.2       1 <0>         0.3037
      8 C5         -4.1166   -1.4924    0.0959 C.2       1 <0>        -0.2700
      9 C6         -5.4338   -1.7456    0.4883 C.2       1 <0>         0.0990
     10 N2         -5.6499   -1.1325    1.6239 N.2       1 <0>        -0.2782
     11 N3         -4.4741   -0.4698    1.9985 N.pl3     1 <0>        -0.4906
     12 H2         -4.3492    0.0617    2.8003 H         1 <0>         0.4363
     13 C7         -6.4344   -2.5815   -0.2675 C.3       1 <0>        -0.0381
     14 C8         -6.9789   -3.6785    0.6496 C.3       1 <0>        -0.0803
     15 C9         -5.8481   -4.6394    1.0223 C.3       1 <0>        -0.1105
     16 C10        -6.3925   -5.7364    1.9393 C.3       1 <0>        -0.1197
     17 C11        -7.4975   -6.5063    1.2133 C.3       1 <0>        -0.1201
     18 C12        -8.6283   -5.5454    0.8406 C.3       1 <0>        -0.1196
     19 C13        -8.0839   -4.4484   -0.0765 C.3       1 <0>        -0.1151
     20 N4          0.6878   -0.4765   -1.2033 N.am      1 <0>        -0.7151
     21 C14         2.0310   -0.5870   -1.2149 C.2       1 <0>         0.5297
     22 O2          2.6720   -0.2952   -0.2276 O.2       1 <0>        -0.5358
     23 C15         2.7363   -1.0730   -2.4548 C.3       1 <0>        -0.1383
     24 C16         2.7585   -2.6046   -2.5906 C.3       1 <0>        -0.1235
     25 C17         4.2034   -2.4602   -3.0969 C.3       1 <0>        -0.1427
     26 C18         4.2654   -1.1426   -2.3064 C.3       1 <0>        -0.1177
     27 H3          1.0039    1.9031    0.0027 H         1 <0>         0.0816
     28 H4         -0.5459    1.8868   -0.8726 H         1 <0>         0.0685
     29 H5         -0.5289    1.8773    0.9072 H         1 <0>         0.0714
     30 H6         -1.9197    0.3412    1.7606 H         1 <0>         0.4147
     31 H7         -3.6377   -1.8601   -0.7996 H         1 <0>         0.1719
     32 H8         -7.2556   -1.9488   -0.6044 H         1 <0>         0.0827
     33 H9         -5.9491   -3.0371   -1.1306 H         1 <0>         0.0846
     34 H10        -7.3851   -3.2270    1.5547 H         1 <0>         0.0767
     35 H11        -5.4419   -5.0909    0.1171 H         1 <0>         0.0618
     36 H12        -5.0609   -4.0909    1.5395 H         1 <0>         0.0580
     37 H13        -5.5869   -6.4210    2.2048 H         1 <0>         0.0587
     38 H14        -6.7987   -5.2849    2.8444 H         1 <0>         0.0595
     39 H15        -7.0913   -6.9578    0.3081 H         1 <0>         0.0612
     40 H16        -7.8854   -7.2878    1.8666 H         1 <0>         0.0591
     41 H17        -9.4155   -6.0939    0.3233 H         1 <0>         0.0612
     42 H18        -9.0345   -5.0939    1.7457 H         1 <0>         0.0609
     43 H19        -8.8894   -3.7638   -0.3420 H         1 <0>         0.0630
     44 H20        -7.6776   -4.8999   -0.9816 H         1 <0>         0.0636
     45 H21         0.1751   -0.7099   -1.9930 H         1 <0>         0.4124
     46 H22         2.4083   -0.5580   -3.3577 H         1 <0>         0.1157
     47 H23         2.6800   -3.1286   -1.6380 H         1 <0>         0.0849
     48 H24         2.0683   -2.9863   -3.3429 H         1 <0>         0.0777
     49 H25         4.8775   -3.2286   -2.7185 H         1 <0>         0.0740
     50 H26         4.2764   -2.3257   -4.1761 H         1 <0>         0.0848
     51 H27         4.7917   -0.3440   -2.8293 H         1 <0>         0.0733
     52 H28         4.5988   -1.2669   -1.2761 H         1 <0>         0.0952
@<TRIPOS>BOND
     1    1    2 1
     2    1   27 1
     3    1   28 1
     4    1   29 1
     5    2    3 1
     6    2    4 1
     7    2   20 1
     8    4    5 2
     9    4    6 am
    10    6    7 1
    11    6   30 1
    12    7   11 1
    13    7    8 2
    14    8    9 1
    15    8   31 1
    16    9   10 2
    17    9   13 1
    18   10   11 1
    19   11   12 1
    20   13   14 1
    21   13   32 1
    22   13   33 1
    23   14   19 1
    24   14   15 1
    25   14   34 1
    26   15   16 1
    27   15   35 1
    28   15   36 1
    29   16   17 1
    30   16   37 1
    31   16   38 1
    32   17   18 1
    33   17   39 1
    34   17   40 1
    35   18   19 1
    36   18   41 1
    37   18   42 1
    38   19   43 1
    39   19   44 1
    40   20   21 am
    41   20   45 1
    42   21   22 2
    43   21   23 1
    44   23   26 1
    45   23   24 1
    46   23   46 1
    47   24   25 1
    48   24   47 1
    49   24   48 1
    50   25   26 1
    51   25   49 1
    52   25   50 1
    53   26   51 1
    54   26   52 1
@<TRIPOS>MOLECULE
ZINC67104547
   52    53     0     0     0
SMALL
USER_CHARGES

@<TRIPOS>ATOM
      1 C1         -1.8833    1.2408   -0.5041 C.3       1 <0>        -0.1492
      2 C2         -1.6222   -0.2654   -0.4411 C.3       1 <0>        -0.0975
      3 C3         -0.7437   -0.5805    0.7712 C.3       1 <0>        -0.1526
      4 C4         -2.9533   -1.0088   -0.3134 C.3       1 <0>        -0.1007
      5 C5         -2.7032   -2.5170   -0.3758 C.3       1 <0>        -0.1325
      6 C6         -4.0143   -3.2492   -0.2501 C.2       1 <0>         0.5140
      7 O1         -5.0471   -2.6262   -0.1230 O.2       1 <0>        -0.5289
      8 N1         -4.0392   -4.5964   -0.2788 N.am      1 <0>        -0.5333
      9 N2         -5.2581   -5.2772   -0.1618 N.am      1 <0>        -0.5344
     10 C7         -5.2830   -6.6244   -0.1905 C.2       1 <0>         0.7116
     11 O2         -6.3408   -7.2152   -0.0890 O.2       1 <0>        -0.5699
     12 N3         -4.1353   -7.3168   -0.3317 N.am      1 <0>        -0.7389
     13 C8         -4.1624   -8.7812   -0.3629 C.3       1 <0>         0.1864
     14 C9         -2.7595   -9.3061   -0.5280 C.ar      1 <0>        -0.1674
     15 C10        -2.2450   -9.5132   -1.7951 C.ar      1 <0>        -0.0565
     16 C11        -0.9606   -9.9953   -1.9460 C.ar      1 <0>        -0.1916
     17 C12        -0.1846  -10.2716   -0.8254 C.ar      1 <0>         0.2274
     18 C13        -0.6996  -10.0607    0.4440 C.ar      1 <0>        -0.1540
     19 C14        -1.9884   -9.5738    0.5863 C.ar      1 <0>        -0.0542
     20 C15         0.1149  -10.3386    1.6798 C.3       1 <0>        -0.0726
     21 C16         1.2578  -11.3024    1.3620 C.3       1 <0>        -0.1384
     22 C17         2.0307  -10.7720    0.1473 C.3       1 <0>         0.1240
     23 N4          1.1132  -10.7644   -1.0002 N.pl3     1 <0>        -0.6365
     24 C18         1.5500  -11.2649   -2.3060 C.3       1 <0>         0.0976
     25 H1         -0.9349    1.7705   -0.5951 H         1 <0>         0.0558
     26 H2         -2.5091    1.4653   -1.3678 H         1 <0>         0.0557
     27 H3         -2.3917    1.5598    0.4058 H         1 <0>         0.0560
     28 H4         -1.1137   -0.5844   -1.3510 H         1 <0>         0.0714
     29 H5          0.2046   -0.0509    0.6803 H         1 <0>         0.0556
     30 H6         -1.2521   -0.2616    1.6811 H         1 <0>         0.0562
     31 H7         -0.5577   -1.6536    0.8161 H         1 <0>         0.0550
     32 H8         -3.4202   -0.7571    0.6388 H         1 <0>         0.0731
     33 H9         -3.6129   -0.7158   -1.1302 H         1 <0>         0.0729
     34 H10        -2.2363   -2.7687   -1.3281 H         1 <0>         0.1002
     35 H11        -2.0436   -2.8100    0.4409 H         1 <0>         0.1018
     36 H12        -3.2132   -5.0947   -0.3804 H         1 <0>         0.4190
     37 H13        -6.0841   -4.7789   -0.0602 H         1 <0>         0.4431
     38 H14        -3.2914   -6.8454   -0.4127 H         1 <0>         0.3914
     39 H15        -4.5834   -9.1568    0.5697 H         1 <0>         0.0755
     40 H16        -4.7762   -9.1155   -1.1993 H         1 <0>         0.0759
     41 H17        -2.8477   -9.2984   -2.6651 H         1 <0>         0.1230
     42 H18        -0.5580  -10.1584   -2.9348 H         1 <0>         0.1230
     43 H19        -2.3940   -9.4069    1.5733 H         1 <0>         0.1225
     44 H20         0.5277   -9.4027    2.0565 H         1 <0>         0.0721
     45 H21        -0.5270  -10.7805    2.4419 H         1 <0>         0.0762
     46 H22         1.9273  -11.3704    2.2195 H         1 <0>         0.0794
     47 H23         0.8517  -12.2880    1.1344 H         1 <0>         0.0701
     48 H24         2.3813   -9.7593    0.3463 H         1 <0>         0.0610
     49 H25         2.8795  -11.4227   -0.0630 H         1 <0>         0.0800
     50 H26         1.5616  -10.4449   -3.0240 H         1 <0>         0.0523
     51 H27         2.5520  -11.6846   -2.2175 H         1 <0>         0.0737
     52 H28         0.8613  -12.0375   -2.6478 H         1 <0>         0.0561
@<TRIPOS>BOND
     1    1    2 1
     2    1   25 1
     3    1   26 1
     4    1   27 1
     5    2    3 1
     6    2    4 1
     7    2   28 1
     8    3   29 1
     9    3   30 1
    10    3   31 1
    11    4    5 1
    12    4   32 1
    13    4   33 1
    14    5    6 1
    15    5   34 1
    16    5   35 1
    17    6    7 2
    18    6    8 am
    19    8    9 1
    20    8   36 1
    21    9   10 am
    22    9   37 1
    23   10   11 2
    24   10   12 am
    25   12   13 1
    26   12   38 1
    27   13   14 1
    28   13   39 1
    29   13   40 1
    30   14   19 ar
    31   14   15 ar
    32   15   16 ar
    33   15   41 1
    34   16   17 ar
    35   16   42 1
    36   17   23 1
    37   17   18 ar
    38   18   19 ar
    39   18   20 1
    40   19   43 1
    41   20   21 1
    42   20   44 1
    43   20   45 1
    44   21   22 1
    45   21   46 1
    46   21   47 1
    47   22   23 1
    48   22   48 1
    49   22   49 1
    50   23   24 1
    51   24   50 1
    52   24   51 1
    53   24   52 1
@<TRIPOS>MOLECULE
ZINC09373146
   55    56     0     0     0
SMALL
USER_CHARGES
4-amino-5-(4-chlorobenzoyl)-2-(3-ethoxypropylamino)-N-(2-methoxyethyl)thiophene-3-carboxamide
@<TRIPOS>ATOM
      1 C1         -1.2916    5.5482    2.3391 C.3       1 <0>        -0.1535
      2 C2         -1.3519    4.0219    2.4266 C.3       1 <0>         0.0579
      3 O1         -0.6859    3.4534    1.2973 O.3       1 <0>        -0.3893
      4 C3         -0.6846    2.0244    1.2819 C.3       1 <0>         0.0670
      5 C4          0.0512    1.5285    0.0356 C.3       1 <0>        -0.1324
      6 C5          0.0525   -0.0014    0.0191 C.3       1 <0>         0.1102
      7 N1          0.7572   -0.4763   -1.1744 N.pl3     1 <0>        -0.6636
      8 C6          0.8863   -1.8245   -1.4049 C.2       1 <0>         0.2140
      9 C7          1.5180   -2.4647   -2.4767 C.2       1 <0>        -0.3656
     10 C8          1.5198   -3.8564   -2.4929 C.2       1 <0>         0.3648
     11 C9          0.8873   -4.5010   -1.4317 C.2       1 <0>        -0.4229
     12 S1          0.3127   -3.1400   -0.4342 S.3       1 <0>         0.1669
     13 C10         0.7433   -5.8827   -1.2016 C.2       1 <0>         0.4882
     14 O2          1.1004   -6.6825   -2.0499 O.2       1 <0>        -0.4927
     15 C11         0.1587   -6.3640    0.0695 C.ar      1 <0>        -0.1402
     16 C12        -0.4466   -7.6202    0.1309 C.ar      1 <0>        -0.0542
     17 C13        -0.9856   -8.0656    1.3196 C.ar      1 <0>        -0.1172
     18 C14        -0.9365   -7.2646    2.4485 C.ar      1 <0>        -0.0150
     19 C15        -0.3418   -6.0150    2.3922 C.ar      1 <0>        -0.1146
     20 C16         0.2052   -5.5613    1.2103 C.ar      1 <0>        -0.0737
     21 Cl1        -1.6225   -7.8294    3.9398 Cl        1 <0>        -0.0627
     22 N2          2.1231   -4.5680   -3.5167 N.pl3     1 <0>        -0.8238
     23 C17         2.1573   -1.6949   -3.5473 C.2       1 <0>         0.5830
     24 O3          3.3294   -1.3806   -3.4544 O.2       1 <0>        -0.5310
     25 N3          1.4473   -1.3350   -4.6349 N.am      1 <0>        -0.7184
     26 C18         2.0864   -0.5654   -5.7052 C.3       1 <0>         0.1188
     27 C19         1.0681   -0.2901   -6.8134 C.3       1 <0>         0.0467
     28 O4          0.0310    0.5536   -6.3086 O.3       1 <0>        -0.3901
     29 C20        -0.9774    0.8734   -7.2692 C.3       1 <0>         0.0304
     30 H1         -1.7818    5.8793    1.4235 H         1 <0>         0.0634
     31 H2         -1.7997    5.9818    3.2004 H         1 <0>         0.0730
     32 H3         -0.2505    5.8708    2.3310 H         1 <0>         0.0636
     33 H4         -2.3931    3.6992    2.4347 H         1 <0>         0.0501
     34 H5         -0.8618    3.6908    3.3421 H         1 <0>         0.0502
     35 H6         -1.7119    1.6604    1.2663 H         1 <0>         0.0549
     36 H7         -0.1807    1.6519    2.1737 H         1 <0>         0.0550
     37 H8          1.0785    1.8925    0.0512 H         1 <0>         0.0838
     38 H9         -0.4527    1.9010   -0.8563 H         1 <0>         0.0839
     39 H10         0.5565   -0.3740    0.9109 H         1 <0>         0.0816
     40 H11        -0.9747   -0.3655    0.0034 H         1 <0>         0.0823
     41 H12         1.1325    0.1611   -1.8018 H         1 <0>         0.4159
     42 H13        -0.4890   -8.2439   -0.7498 H         1 <0>         0.1428
     43 H14        -1.4505   -9.0391    1.3693 H         1 <0>         0.1403
     44 H15        -0.3061   -5.3948    3.2757 H         1 <0>         0.1406
     45 H16         0.6689   -4.5868    1.1677 H         1 <0>         0.1407
     46 H17         2.5575   -4.0965   -4.2446 H         1 <0>         0.3986
     47 H18         2.1112   -5.5379   -3.5057 H         1 <0>         0.4208
     48 H19         0.5131   -1.5854   -4.7090 H         1 <0>         0.4056
     49 H20         2.4518    0.3801   -5.3044 H         1 <0>         0.0783
     50 H21         2.9220   -1.1344   -6.1127 H         1 <0>         0.0852
     51 H22         1.5645    0.2044   -7.6484 H         1 <0>         0.0691
     52 H23         0.6372   -1.2319   -7.1530 H         1 <0>         0.0582
     53 H24        -1.7273    1.5164   -6.8085 H         1 <0>         0.0883
     54 H25        -0.5234    1.3919   -8.1136 H         1 <0>         0.0438
     55 H26        -1.4507   -0.0444   -7.6183 H         1 <0>         0.0430
@<TRIPOS>BOND
     1    1    2 1
     2    1   30 1
     3    1   31 1
     4    1   32 1
     5    2    3 1
     6    2   33 1
     7    2   34 1
     8    3    4 1
     9    4    5 1
    10    4   35 1
    11    4   36 1
    12    5    6 1
    13    5   37 1
    14    5   38 1
    15    6    7 1
    16    6   39 1
    17    6   40 1
    18    7    8 1
    19    7   41 1
    20    8   12 1
    21    8    9 2
    22    9   10 1
    23    9   23 1
    24   10   11 2
    25   10   22 1
    26   11   12 1
    27   11   13 1
    28   13   14 2
    29   13   15 1
    30   15   20 ar
    31   15   16 ar
    32   16   17 ar
    33   16   42 1
    34   17   18 ar
    35   17   43 1
    36   18   19 ar
    37   18   21 1
    38   19   20 ar
    39   19   44 1
    40   20   45 1
    41   22   46 1
    42   22   47 1
    43   23   24 2
    44   23   25 am
    45   25   26 1
    46   25   48 1
    47   26   27 1
    48   26   49 1
    49   26   50 1
    50   27   28 1
    51   27   51 1
    52   27   52 1
    53   28   29 1
    54   29   53 1
    55   29   54 1
    56   29   55 1
@<TRIPOS>MOLECULE
ZINC13621158
   56    58     0     0     0
SMALL
USER_CHARGES
N-[4-[[[(E)-3-(4-ethoxyphenyl)prop-2-enoyl]carbamothioylamino]carbamoyl]phenyl]cyclopropanecarboxamide
@<TRIPOS>ATOM
      1 C1         -8.6884    5.9137    0.1380 C.3       1 <0>        -0.1545
      2 C2         -7.2649    5.3533    0.1165 C.3       1 <0>         0.0527
      3 O1         -7.3152    3.9253    0.1026 O.3       1 <0>        -0.3118
      4 C3         -6.1284    3.2670    0.0827 C.ar      1 <0>         0.1518
      5 C4         -6.1074    1.8769    0.0684 C.ar      1 <0>        -0.1564
      6 C5         -4.9064    1.2045    0.0482 C.ar      1 <0>        -0.0445
      7 C6         -3.7049    1.9228    0.0425 C.ar      1 <0>        -0.1281
      8 C7         -3.7315    3.3223    0.0633 C.ar      1 <0>        -0.0527
      9 C8         -4.9379    3.9851    0.0771 C.ar      1 <0>        -0.2156
     10 C9         -2.4198    1.2100    0.0209 C.2       1 <0>         0.0197
     11 C10        -1.2619    1.9053    0.0155 C.2       1 <0>        -0.2408
     12 C11         0.0158    1.1966   -0.0060 C.2       1 <0>         0.5271
     13 O2          0.0367   -0.0202   -0.0190 O.2       1 <0>        -0.4115
     14 N1          1.1712    1.8904   -0.0170 N.am      1 <0>        -0.6435
     15 C12         2.3496    1.2368   -0.0425 C.2       1 <0>         0.5167
     16 S1          2.3789   -0.4748   -0.0607 S.2       1 <0>        -0.4600
     17 N2          3.5050    1.9307   -0.0535 N.pl3     1 <0>        -0.4564
     18 N3          3.4810    3.3315   -0.0385 N.am      1 <0>        -0.5507
     19 C13         4.6364    4.0253   -0.0496 C.2       1 <0>         0.5718
     20 O3          5.6995    3.4357   -0.0725 O.2       1 <0>        -0.5125
     21 C14         4.6112    5.5010   -0.0338 C.ar      1 <0>        -0.1519
     22 C15         3.3901    6.1803   -0.0132 C.ar      1 <0>        -0.0647
     23 C16         3.3702    7.5568    0.0073 C.ar      1 <0>        -0.1505
     24 C17         4.5638    8.2715   -0.0046 C.ar      1 <0>         0.1828
     25 C18         5.7811    7.5984   -0.0305 C.ar      1 <0>        -0.1280
     26 C19         5.8082    6.2220   -0.0452 C.ar      1 <0>        -0.0270
     27 N4          4.5399    9.6657    0.0098 N.am      1 <0>        -0.6718
     28 C20         5.4931   10.3491    0.6739 C.2       1 <0>         0.5451
     29 O4          6.4173    9.7560    1.1885 O.2       1 <0>        -0.5107
     30 C21         5.4104   11.8503    0.7769 C.3       1 <0>        -0.2011
     31 C22         6.4569   12.6692    0.0185 C.3       1 <0>        -0.1492
     32 C23         6.5228   12.5681    1.5437 C.3       1 <0>        -0.1433
     33 H1         -9.2048    5.5596    1.0303 H         1 <0>         0.0679
     34 H2         -8.6500    7.0029    0.1486 H         1 <0>         0.0806
     35 H3         -9.2246    5.5776   -0.7495 H         1 <0>         0.0679
     36 H4         -6.7286    5.6894    1.0040 H         1 <0>         0.0644
     37 H5         -6.7485    5.7074   -0.7758 H         1 <0>         0.0644
     38 H6         -7.0349    1.3237    0.0728 H         1 <0>         0.1376
     39 H7         -4.8912    0.1246    0.0371 H         1 <0>         0.1394
     40 H8         -2.8073    3.8810    0.0638 H         1 <0>         0.1301
     41 H9         -4.9597    5.0648    0.0887 H         1 <0>         0.1323
     42 H10        -2.4013    0.1302    0.0094 H         1 <0>         0.1416
     43 H11        -1.2804    2.9851    0.0270 H         1 <0>         0.1304
     44 H12         1.1546    2.8602   -0.0067 H         1 <0>         0.4014
     45 H13         4.3531    1.4603   -0.0718 H         1 <0>         0.4583
     46 H14         2.6329    3.8019   -0.0203 H         1 <0>         0.4174
     47 H15         2.4631    5.6261   -0.0092 H         1 <0>         0.1262
     48 H16         2.4269    8.0823    0.0277 H         1 <0>         0.1378
     49 H17         6.7059    8.1562   -0.0393 H         1 <0>         0.1507
     50 H18         6.7535    5.7001   -0.0653 H         1 <0>         0.1454
     51 H19         3.8374   10.1436   -0.4580 H         1 <0>         0.4168
     52 H20         4.4036   12.2619    0.8480 H         1 <0>         0.1294
     53 H21         7.2052   12.1221   -0.5549 H         1 <0>         0.1018
     54 H22         6.1387   13.6197   -0.4096 H         1 <0>         0.1093
     55 H23         6.2480   13.4522    2.1190 H         1 <0>         0.1079
     56 H24         7.3143   11.9546    1.9741 H         1 <0>         0.1105
@<TRIPOS>BOND
     1    1    2 1
     2    1   33 1
     3    1   34 1
     4    1   35 1
     5    2    3 1
     6    2   36 1
     7    2   37 1
     8    3    4 1
     9    4    9 ar
    10    4    5 ar
    11    5    6 ar
    12    5   38 1
    13    6    7 ar
    14    6   39 1
    15    7    8 ar
    16    7   10 1
    17    8    9 ar
    18    8   40 1
    19    9   41 1
    20   10   11 2
    21   10   42 1
    22   11   12 1
    23   11   43 1
    24   12   13 2
    25   12   14 am
    26   14   15 1
    27   14   44 1
    28   15   16 2
    29   15   17 1
    30   17   18 1
    31   17   45 1
    32   18   19 am
    33   18   46 1
    34   19   20 2
    35   19   21 1
    36   21   26 ar
    37   21   22 ar
    38   22   23 ar
    39   22   47 1
    40   23   24 ar
    41   23   48 1
    42   24   25 ar
    43   24   27 1
    44   25   26 ar
    45   25   49 1
    46   26   50 1
    47   27   28 am
    48   27   51 1
    49   28   29 2
    50   28   30 1
    51   30   32 1
    52   30   31 1
    53   30   52 1
    54   31   32 1
    55   31   53 1
    56   31   54 1
    57   32   55 1
    58   32   56 1
@<TRIPOS>MOLECULE
ZINC18248434
   63    66     0     0     0
SMALL
USER_CHARGES
[2-(cyclopentylcarbamoylamino)-2-oxo-ethyl] (2S)-2-[(4-fluorobenzoyl)amino]-3-(1H-indol-3-yl)propanoate
@<TRIPOS>ATOM
      1 C1         -5.6814   -6.0219    2.4941 C.ar      1 <0>        -0.1408
      2 C2         -7.0507   -6.0278    2.2654 C.ar      1 <0>        -0.1033
      3 C3         -7.6788   -4.9236    1.7328 C.ar      1 <0>        -0.1270
      4 C4         -6.9357   -3.7897    1.4200 C.ar      1 <0>         0.1040
      5 C5         -5.5476   -3.7911    1.6478 C.ar      1 <0>        -0.0785
      6 C6         -4.9325   -4.9192    2.1944 C.ar      1 <0>        -0.0794
      7 C7         -5.0670   -2.4731    1.2261 C.2       1 <0>        -0.1681
      8 C8         -6.1338   -1.7901    0.7819 C.2       1 <0>         0.0748
      9 N1         -7.2592   -2.5608    0.8901 N.pl3     1 <0>        -0.5911
     10 H1         -8.1520   -2.2826    0.6324 H         1 <0>         0.4146
     11 C9         -3.6438   -1.9799    1.2755 C.3       1 <0>        -0.0498
     12 C10        -2.9025   -2.4345    0.0167 C.3       1 <0>         0.1681
     13 H2         -3.4476   -2.1011   -0.8663 H         1 <0>         0.1322
     14 C11        -1.5179   -1.8396    0.0067 C.2       1 <0>         0.4665
     15 O1         -0.5499   -2.5625   -0.0065 O.2       1 <0>        -0.4982
     16 O2         -1.3601   -0.5067    0.0123 O.3       1 <0>        -0.3239
     17 C12         0.0021   -0.0041    0.0020 C.3       1 <0>         0.0512
     18 C13        -0.0184    1.5028    0.0103 C.2       1 <0>         0.5181
     19 O3         -1.0764    2.0946    0.0185 O.2       1 <0>        -0.4372
     20 N2          1.1395    2.1925    0.0030 N.am      1 <0>        -0.6888
     21 C14         1.1213    3.5401    0.0104 C.2       1 <0>         0.6951
     22 O4          0.0606    4.1334    0.0237 O.2       1 <0>        -0.5243
     23 N3          2.2792    4.2298    0.0030 N.am      1 <0>        -0.7299
     24 C15         2.2593    5.6946    0.0111 C.3       1 <0>         0.1545
     25 C16         2.1835    6.2300   -1.4337 C.3       1 <0>        -0.1369
     26 C17         3.0738    7.4974   -1.4163 C.3       1 <0>        -0.1256
     27 C18         4.2418    7.0819   -0.4878 C.3       1 <0>        -0.1249
     28 C19         3.5680    6.2362    0.6125 C.3       1 <0>        -0.1314
     29 N4         -2.8060   -3.8963    0.0079 N.am      1 <0>        -0.7170
     30 C20        -3.8218   -4.6358   -0.4797 C.2       1 <0>         0.5724
     31 O5         -4.8182   -4.0898   -0.9122 O.2       1 <0>        -0.5060
     32 C21        -3.7245   -6.1098   -0.4885 C.ar      1 <0>        -0.1360
     33 C22        -2.5787   -6.7394    0.0025 C.ar      1 <0>        -0.0591
     34 C23        -2.4960   -8.1153   -0.0020 C.ar      1 <0>        -0.1600
     35 C24        -3.5423   -8.8736   -0.5046 C.ar      1 <0>         0.1252
     36 C25        -4.6796   -8.2535   -0.9990 C.ar      1 <0>        -0.1597
     37 C26        -4.7756   -6.8785   -0.9931 C.ar      1 <0>        -0.0228
     38 F1         -3.4535  -10.2217   -0.5122 F         1 <0>        -0.1342
     39 H3         -5.2043   -6.8960    2.9120 H         1 <0>         0.1156
     40 H4         -7.6293   -6.9071    2.5071 H         1 <0>         0.1205
     41 H5         -8.7445   -4.9381    1.5582 H         1 <0>         0.1156
     42 H6         -3.8676   -4.9220    2.3747 H         1 <0>         0.1110
     43 H7         -6.1077   -0.7816    0.3963 H         1 <0>         0.1674
     44 H8         -3.1482   -2.3880    2.1564 H         1 <0>         0.0792
     45 H9         -3.6382   -0.8911    1.3272 H         1 <0>         0.0972
     46 H10         0.5123   -0.3556   -0.8948 H         1 <0>         0.1116
     47 H11         0.5293   -0.3651    0.8851 H         1 <0>         0.1122
     48 H12         1.9860    1.7190   -0.0077 H         1 <0>         0.4117
     49 H13         3.1257    3.7563   -0.0076 H         1 <0>         0.3985
     50 H14         1.4068    6.0530    0.5881 H         1 <0>         0.0957
     51 H15         2.5798    5.4950   -2.1342 H         1 <0>         0.0702
     52 H16         1.1565    6.4888   -1.6913 H         1 <0>         0.0733
     53 H17         2.5309    8.3451   -0.9984 H         1 <0>         0.0712
     54 H18         3.4389    7.7267   -2.4174 H         1 <0>         0.0703
     55 H19         4.7169    7.9623   -0.0551 H         1 <0>         0.0702
     56 H20         4.9706    6.4844   -1.0356 H         1 <0>         0.0675
     57 H21         3.3506    6.8582    1.4808 H         1 <0>         0.0782
     58 H22         4.2175    5.4092    0.8991 H         1 <0>         0.0720
     59 H23        -2.0110   -4.3320    0.3530 H         1 <0>         0.4063
     60 H24        -1.7612   -6.1495    0.3898 H         1 <0>         0.1348
     61 H25        -1.6126   -8.6034    0.3826 H         1 <0>         0.1418
     62 H26        -5.4919   -8.8489   -1.3890 H         1 <0>         0.1420
     63 H27        -5.6622   -6.3964   -1.3778 H         1 <0>         0.1433
@<TRIPOS>BOND
     1    1    6 ar
     2    1    2 ar
     3    1   39 1
     4    2    3 ar
     5    2   40 1
     6    3    4 ar
     7    3   41 1
     8    4    9 1
     9    4    5 ar
    10    5    6 ar
    11    5    7 1
    12    6   42 1
    13    7    8 2
    14    7   11 1
    15    8    9 1
    16    8   43 1
    17    9   10 1
    18   11   12 1
    19   11   44 1
    20   11   45 1
    21   12   13 1
    22   12   14 1
    23   12   29 1
    24   14   15 2
    25   14   16 1
    26   16   17 1
    27   17   18 1
    28   17   46 1
    29   17   47 1
    30   18   19 2
    31   18   20 am
    32   20   21 am
    33   20   48 1
    34   21   22 2
    35   21   23 am
    36   23   24 1
    37   23   49 1
    38   24   28 1
    39   24   25 1
    40   24   50 1
    41   25   26 1
    42   25   51 1
    43   25   52 1
    44   26   27 1
    45   26   53 1
    46   26   54 1
    47   27   28 1
    48   27   55 1
    49   27   56 1
    50   28   57 1
    51   28   58 1
    52   29   30 am
    53   29   59 1
    54   30   31 2
    55   30   32 1
    56   32   37 ar
    57   32   33 ar
    58   33   34 ar
    59   33   60 1
    60   34   35 ar
    61   34   61 1
    62   35   36 ar
    63   35   38 1
    64   36   37 ar
    65   36   62 1
    66   37   63 1
@<TRIPOS>MOLECULE
ZINC26851868
   54    56     0     0     0
SMALL
USER_CHARGES
N-[(1S)-1-[(1,3-benzodioxol-5-ylmethylcarbamothioylamino)carbamoyl]-2-methyl-propyl]-2,6-difluoro-benzamide
@<TRIPOS>ATOM
      1 C1          6.6471   -4.1245   -4.3551 C.3       1 <0>        -0.1441
      2 C2          7.0675   -3.6748   -2.9544 C.3       1 <0>        -0.0971
      3 C3          7.8928   -4.7789   -2.2905 C.3       1 <0>        -0.1518
      4 C4          7.9094   -2.4016   -3.0587 C.3       1 <0>         0.1459
      5 H1          7.3715   -1.6165   -3.6103 H         1 <0>         0.1179
      6 C5          8.2514   -1.9107   -1.6756 C.2       1 <0>         0.5269
      7 O1          9.3646   -2.0867   -1.2276 O.2       1 <0>        -0.5187
      8 N1          7.3201   -1.2760   -0.9364 N.am      1 <0>        -0.5528
      9 N2          7.6023   -0.9170    0.3881 N.pl3     1 <0>        -0.4805
     10 C6          6.6711   -0.2823    1.1273 C.2       1 <0>         0.5671
     11 S1          7.0159    0.1563    2.7459 S.2       1 <0>        -0.6024
     12 N3          5.4684    0.0070    0.5924 N.pl3     1 <0>        -0.6913
     13 C7          4.4561    0.6969    1.3959 C.3       1 <0>         0.1737
     14 C8          3.2117    0.8994    0.5703 C.ar      1 <0>        -0.1107
     15 C9          2.2207   -0.0645    0.5685 C.ar      1 <0>        -0.0844
     16 C10         1.0776    0.1164   -0.1875 C.ar      1 <0>        -0.1019
     17 C11         0.9225    1.2656   -0.9457 C.ar      1 <0>         0.0467
     18 C12         1.9206    2.2369   -0.9436 C.ar      1 <0>         0.0315
     19 C13         3.0635    2.0488   -0.1834 C.ar      1 <0>        -0.0796
     20 O2          1.5349    3.2607   -1.7598 O.3       1 <0>        -0.3083
     21 C14         0.1159    3.0952   -1.9396 C.3       1 <0>         0.2081
     22 O3         -0.0885    1.6809   -1.7634 O.3       1 <0>        -0.3023
     23 N4          9.1435   -2.6910   -3.7932 N.am      1 <0>        -0.7137
     24 C15         9.1510   -2.6517   -5.1404 C.2       1 <0>         0.5772
     25 O4          8.1335   -2.3760   -5.7461 O.2       1 <0>        -0.5115
     26 C16        10.3939   -2.9432   -5.8800 C.ar      1 <0>        -0.2019
     27 C17        10.6931   -4.2549   -6.2635 C.ar      1 <0>         0.1642
     28 C18        11.8572   -4.5183   -6.9608 C.ar      1 <0>        -0.1633
     29 C19        12.7302   -3.4912   -7.2699 C.ar      1 <0>        -0.0403
     30 C20        12.4450   -2.1923   -6.8896 C.ar      1 <0>        -0.1631
     31 C21        11.2827   -1.9103   -6.1969 C.ar      1 <0>         0.1649
     32 F1         11.0059   -0.6409   -5.8264 F         1 <0>        -0.1206
     33 F2          9.8443   -5.2605   -5.9577 F         1 <0>        -0.1200
     34 H2          6.0538   -3.3307   -4.8324 H         1 <0>         0.0652
     35 H3          6.0418   -5.0399   -4.2800 H         1 <0>         0.0577
     36 H4          7.5435   -4.3262   -4.9599 H         1 <0>         0.0617
     37 H5          6.1711   -3.4731   -2.3497 H         1 <0>         0.0837
     38 H6          8.1950   -4.4555   -1.2835 H         1 <0>         0.0556
     39 H7          8.7892   -4.9806   -2.8953 H         1 <0>         0.0622
     40 H8          7.2875   -5.6943   -2.2154 H         1 <0>         0.0643
     41 H9          6.3385   -1.0399   -1.3730 H         1 <0>         0.4407
     42 H10         8.5839   -1.1532    0.8247 H         1 <0>         0.4895
     43 H11         5.2468   -0.2749   -0.4475 H         1 <0>         0.4065
     44 H12         4.2143    0.0900    2.2808 H         1 <0>         0.1039
     45 H13         4.8462    1.6740    1.7169 H         1 <0>         0.1011
     46 H14         2.3399   -0.9610    1.1589 H         1 <0>         0.1429
     47 H15         0.3050   -0.6382   -0.1870 H         1 <0>         0.1408
     48 H16         3.8390    2.8004   -0.1795 H         1 <0>         0.1391
     49 H17        -0.4210    3.6907   -1.1866 H         1 <0>         0.0897
     50 H18        -0.1682    3.4350   -2.9465 H         1 <0>         0.1372
     51 H19        10.0641   -2.9404   -3.2452 H         1 <0>         0.4383
     52 H20        12.0874   -5.5296   -7.2618 H         1 <0>         0.1520
     53 H21        13.6402   -3.7046   -7.8110 H         1 <0>         0.1520
     54 H22        13.1323   -1.3962   -7.1351 H         1 <0>         0.1520
@<TRIPOS>BOND
     1    1    2 1
     2    1   34 1
     3    1   35 1
     4    1   36 1
     5    2    3 1
     6    2    4 1
     7    2   37 1
     8    3   38 1
     9    3   39 1
    10    3   40 1
    11    4    5 1
    12    4    6 1
    13    4   23 1
    14    6    7 2
    15    6    8 am
    16    8    9 1
    17    8   41 1
    18    9   10 1
    19    9   42 1
    20   10   11 2
    21   10   12 1
    22   12   13 1
    23   12   43 1
    24   13   14 1
    25   13   44 1
    26   13   45 1
    27   14   19 ar
    28   14   15 ar
    29   15   16 ar
    30   15   46 1
    31   16   17 ar
    32   16   47 1
    33   17   22 1
    34   17   18 ar
    35   18   19 ar
    36   18   20 1
    37   19   48 1
    38   20   21 1
    39   21   22 1
    40   21   49 1
    41   21   50 1
    42   23   24 am
    43   23   51 1
    44   24   25 2
    45   24   26 1
    46   26   31 ar
    47   26   27 ar
    48   27   28 ar
    49   27   33 1
    50   28   29 ar
    51   28   52 1
    52   29   30 ar
    53   29   53 1
    54   30   31 ar
    55   30   54 1
    56   31   32 1
@<TRIPOS>MOLECULE
ZINC66086139
   61    63     0     0     0
SMALL
USER_CHARGES

@<TRIPOS>ATOM
      1 C1          1.8626    0.7287    1.3978 C.3       1 <0>        -0.1652
      2 C2          1.4907    1.6178    0.2094 C.3       1 <0>         0.1683
      3 C3         -0.0219    1.5639   -0.0140 C.3       1 <0>        -0.1647
      4 C4          1.9123    3.0596    0.4995 C.3       1 <0>        -0.1572
      5 N1          2.1792    1.1400   -0.9922 N.am      1 <0>        -0.7207
      6 C5          1.9607   -0.1118   -1.4412 C.2       1 <0>         0.5633
      7 O1          1.1923   -0.8447   -0.8490 O.2       1 <0>        -0.5317
      8 C6          2.6544   -0.5932   -2.6519 C.ar      1 <0>        -0.1516
      9 C7          3.5423    0.2459   -3.3305 C.ar      1 <0>        -0.0645
     10 C8          4.1880   -0.2063   -4.4591 C.ar      1 <0>        -0.1289
     11 C9          3.9571   -1.4970   -4.9245 C.ar      1 <0>         0.1713
     12 C10         3.0736   -2.3349   -4.2513 C.ar      1 <0>        -0.1513
     13 C11         2.4290   -1.8909   -3.1188 C.ar      1 <0>        -0.0366
     14 N2          4.6120   -1.9516   -6.0685 N.am      1 <0>        -0.6694
     15 C12         5.8632   -1.5309   -6.3408 C.2       1 <0>         0.5108
     16 O2          6.4553   -0.8338   -5.5443 O.2       1 <0>        -0.5066
     17 C13         6.5264   -1.9266   -7.6348 C.3       1 <0>         0.1085
     18 N3          7.8709   -1.3476   -7.6915 N.pl3     1 <0>        -0.7371
     19 C14         8.6842   -1.5776   -8.8040 C.ar      1 <0>         0.2109
     20 C15         8.2155   -2.3512   -9.8598 C.ar      1 <0>        -0.1738
     21 C16         9.0160   -2.5812  -10.9626 C.ar      1 <0>        -0.0763
     22 C17        10.2862   -2.0445  -11.0233 C.ar      1 <0>        -0.1424
     23 C18        10.7663   -1.2664   -9.9687 C.ar      1 <0>        -0.0868
     24 C19         9.9565   -1.0297   -8.8577 C.ar      1 <0>        -0.1279
     25 C20        12.1268   -0.6907  -10.0311 C.2       1 <0>         0.5614
     26 O3         12.5429   -0.0134   -9.1115 O.2       1 <0>        -0.5308
     27 N4         12.9055   -0.9169  -11.1076 N.am      1 <0>        -0.7245
     28 C21        14.2535   -0.3465  -11.1694 C.3       1 <0>         0.2036
     29 C22        14.9088   -0.7457  -12.4664 C.2       1 <0>        -0.0433
     30 C23        14.8546   -0.0561  -13.6201 C.2       1 <0>        -0.1802
     31 C24        15.6029   -0.7881  -14.5704 C.2       1 <0>        -0.2182
     32 C25        16.0696   -1.8813  -13.9406 C.2       1 <0>        -0.0259
     33 O4         15.6509   -1.8473  -12.6650 O.3       1 <0>        -0.1711
     34 H1          1.5622   -0.2985    1.1911 H         1 <0>         0.0786
     35 H2          2.9403    0.7671    1.5570 H         1 <0>         0.0544
     36 H3          1.3504    1.0842    2.2918 H         1 <0>         0.0644
     37 H4         -0.5342    1.9194    0.8800 H         1 <0>         0.0644
     38 H5         -0.2869    2.1973   -0.8606 H         1 <0>         0.0541
     39 H6         -0.3223    0.5367   -0.2207 H         1 <0>         0.0787
     40 H7          2.9900    3.0980    0.6588 H         1 <0>         0.0627
     41 H8          1.6474    3.6930   -0.3470 H         1 <0>         0.0625
     42 H9          1.4001    3.4151    1.3936 H         1 <0>         0.0757
     43 H10         2.7922    1.7247   -1.4647 H         1 <0>         0.3983
     44 H11         3.7215    1.2481   -2.9701 H         1 <0>         0.1294
     45 H12         4.8744    0.4416   -4.9840 H         1 <0>         0.1403
     46 H13         2.8966   -3.3362   -4.6152 H         1 <0>         0.1354
     47 H14         1.7468   -2.5434   -2.5941 H         1 <0>         0.1425
     48 H15         4.1672   -2.5706   -6.6684 H         1 <0>         0.4171
     49 H16         6.5960   -3.0130   -7.6900 H         1 <0>         0.0970
     50 H17         5.9361   -1.5573   -8.4734 H         1 <0>         0.0983
     51 H18         8.1965   -0.8045   -6.9567 H         1 <0>         0.4143
     52 H19         7.2226   -2.7741   -9.8178 H         1 <0>         0.1257
     53 H20         8.6466   -3.1832  -11.7796 H         1 <0>         0.1300
     54 H21        10.9087   -2.2268  -11.8868 H         1 <0>         0.1224
     55 H22        10.3211   -0.4250   -8.0405 H         1 <0>         0.1367
     56 H23        12.5735   -1.4574  -11.8414 H         1 <0>         0.4047
     57 H24        14.1911    0.7403  -11.1133 H         1 <0>         0.1024
     58 H25        14.8448   -0.7201  -10.3335 H         1 <0>         0.0883
     59 H26        14.3381    0.8773  -13.7883 H         1 <0>         0.1518
     60 H27        15.7678   -0.5211  -15.6038 H         1 <0>         0.1520
     61 H28        16.6808   -2.6532  -14.3845 H         1 <0>         0.2063
@<TRIPOS>BOND
     1    1    2 1
     2    1   34 1
     3    1   35 1
     4    1   36 1
     5    2    3 1
     6    2    4 1
     7    2    5 1
     8    3   37 1
     9    3   38 1
    10    3   39 1
    11    4   40 1
    12    4   41 1
    13    4   42 1
    14    5    6 am
    15    5   43 1
    16    6    7 2
    17    6    8 1
    18    8   13 ar
    19    8    9 ar
    20    9   10 ar
    21    9   44 1
    22   10   11 ar
    23   10   45 1
    24   11   12 ar
    25   11   14 1
    26   12   13 ar
    27   12   46 1
    28   13   47 1
    29   14   15 am
    30   14   48 1
    31   15   16 2
    32   15   17 1
    33   17   18 1
    34   17   49 1
    35   17   50 1
    36   18   19 1
    37   18   51 1
    38   19   24 ar
    39   19   20 ar
    40   20   21 ar
    41   20   52 1
    42   21   22 ar
    43   21   53 1
    44   22   23 ar
    45   22   54 1
    46   23   24 ar
    47   23   25 1
    48   24   55 1
    49   25   26 2
    50   25   27 am
    51   27   28 1
    52   27   56 1
    53   28   29 1
    54   28   57 1
    55   28   58 1
    56   29   33 1
    57   29   30 2
    58   30   31 1
    59   30   59 1
    60   31   32 2
    61   31   60 1
    62   32   33 1
    63   32   61 1
@<TRIPOS>MOLECULE
ZINC09482482
   37    39     0     0     0
SMALL
USER_CHARGES
9-amino-N-[(4-methoxyphenyl)methyleneamino]-7-thia-5-azabicyclo[4.3.0]nona-2,4,8,10-tetraene-8-carboxamide
@<TRIPOS>ATOM
      1 C1         -7.2073   -4.1248    0.0506 C.3       1 <0>         0.0248
      2 O1         -5.9984   -4.8867    0.0345 O.3       1 <0>        -0.3154
      3 C2         -4.8313   -4.1915    0.0266 C.ar      1 <0>         0.1450
      4 C3         -3.6204   -4.8716    0.0109 C.ar      1 <0>        -0.1568
      5 C4         -2.4340   -4.1706    0.0029 C.ar      1 <0>        -0.0475
      6 C5         -2.4505   -2.7733    0.0106 C.ar      1 <0>        -0.0967
      7 C6         -3.6711   -2.0934    0.0317 C.ar      1 <0>        -0.0356
      8 C7         -4.8526   -2.8027    0.0348 C.ar      1 <0>        -0.2146
      9 C8         -1.1840   -2.0189    0.0025 C.2       1 <0>         0.1167
     10 N1         -1.2016   -0.7210    0.0097 N.2       1 <0>        -0.2298
     11 N2          0.0021   -0.0041    0.0020 N.am      1 <0>        -0.5794
     12 C9         -0.0162    1.3436    0.0094 C.2       1 <0>         0.6425
     13 O2         -1.0793    1.9382    0.0177 O.2       1 <0>        -0.5211
     14 C10         1.2011    2.0686    0.0017 C.2       1 <0>        -0.3508
     15 C11         1.3816    3.4346    0.0073 C.2       1 <0>         0.3121
     16 C12         2.7415    3.9510   -0.0021 C.ar      1 <0>        -0.1882
     17 C13         3.1758    5.3001    0.0007 C.ar      1 <0>        -0.0089
     18 C14         4.5246    5.5661   -0.0090 C.ar      1 <0>        -0.1857
     19 C15         5.4445    4.5279   -0.0232 C.ar      1 <0>         0.1598
     20 N3          5.0368    3.2740   -0.0262 N.ar      1 <0>        -0.4532
     21 C16         3.7571    2.9682   -0.0164 C.ar      1 <0>         0.1338
     22 S1          2.8656    1.4325   -0.0097 S.3       1 <0>         0.1085
     23 N4          0.2933    4.2961    0.0220 N.pl3     1 <0>        -0.8210
     24 H1         -7.2318   -3.5012    0.9443 H         1 <0>         0.0581
     25 H2         -7.2495   -3.4916   -0.8356 H         1 <0>         0.0581
     26 H3         -8.0626   -4.8005    0.0555 H         1 <0>         0.1024
     27 H4         -3.6086   -5.9516    0.0054 H         1 <0>         0.1368
     28 H5         -1.4929   -4.7003   -0.0089 H         1 <0>         0.1370
     29 H6         -3.6886   -1.0136    0.0422 H         1 <0>         0.1383
     30 H7         -5.7965   -2.2780    0.0473 H         1 <0>         0.1325
     31 H8         -0.2415   -2.5462   -0.0093 H         1 <0>         0.1217
     32 H9          0.8486   -0.4776   -0.0086 H         1 <0>         0.3854
     33 H10         2.4580    6.1070    0.0111 H         1 <0>         0.1398
     34 H11         4.8700    6.5894   -0.0063 H         1 <0>         0.1495
     35 H12         6.5018    4.7482   -0.0314 H         1 <0>         0.1765
     36 H13        -0.6083    3.9385    0.0281 H         1 <0>         0.4251
     37 H14         0.4345    5.2558    0.0262 H         1 <0>         0.4007
@<TRIPOS>BOND
     1    1    2 1
     2    1   24 1
     3    1   25 1
     4    1   26 1
     5    2    3 1
     6    3    8 ar
     7    3    4 ar
     8    4    5 ar
     9    4   27 1
    10    5    6 ar
    11    5   28 1
    12    6    7 ar
    13    6    9 1
    14    7    8 ar
    15    7   29 1
    16    8   30 1
    17    9   10 2
    18    9   31 1
    19   10   11 1
    20   11   12 am
    21   11   32 1
    22   12   13 2
    23   12   14 1
    24   14   22 1
    25   14   15 2
    26   15   16 1
    27   15   23 1
    28   16   21 ar
    29   16   17 ar
    30   17   18 ar
    31   17   33 1
    32   18   19 ar
    33   18   34 1
    34   19   20 ar
    35   19   35 1
    36   20   21 ar
    37   21   22 1
    38   23   36 1
    39   23   37 1
@<TRIPOS>MOLECULE
ZINC31133757
   35    36     0     0     0
SMALL
USER_CHARGES
2-hydroxy-N-[3-(methanesulfonamido)phenyl]benzamide
@<TRIPOS>ATOM
      1 C1          6.8227    1.3183    2.3627 C.3       1 <0>        -0.6733
      2 S1          7.2478    1.1258    0.6097 S.o2      1 <0>         2.6134
      3 O1          7.2534   -0.2504    0.2557 O.2       1 <0>        -0.9511
      4 O2          8.3463    1.9638    0.2776 O.2       1 <0>        -0.9538
      5 N1          5.9622    1.7685   -0.2129 N.pl3     1 <0>        -1.0704
      6 C2          4.6943    1.1970   -0.0838 C.ar      1 <0>         0.1631
      7 C3          4.5436   -0.1833   -0.1463 C.ar      1 <0>        -0.1747
      8 C4          3.2900   -0.7491   -0.0182 C.ar      1 <0>        -0.0765
      9 C5          2.1828    0.0541    0.1777 C.ar      1 <0>        -0.1567
     10 C6          2.3258    1.4348    0.2358 C.ar      1 <0>         0.1698
     11 C7          3.5838    2.0066    0.1075 C.ar      1 <0>        -0.1390
     12 N2          1.2040    2.2471    0.4292 N.am      1 <0>        -0.6875
     13 C8          1.1309    3.4499   -0.1745 C.2       1 <0>         0.5637
     14 O3          2.0754    3.8659   -0.8176 O.2       1 <0>        -0.5013
     15 C9         -0.0926    4.2644   -0.0500 C.ar      1 <0>        -0.1885
     16 C10        -1.1824    3.7879    0.6831 C.ar      1 <0>        -0.0448
     17 C11        -2.3207    4.5555    0.7992 C.ar      1 <0>        -0.1725
     18 C12        -2.3939    5.7948    0.1839 C.ar      1 <0>        -0.0476
     19 C13        -1.3264    6.2754   -0.5479 C.ar      1 <0>        -0.2257
     20 C14        -0.1708    5.5183   -0.6713 C.ar      1 <0>         0.2195
     21 O4          0.8787    5.9891   -1.3903 O.3       1 <0>        -0.4747
     22 H1          6.8216    2.3867    2.6245 H         1 <0>         0.1313
     23 H2          7.5644    0.7903    2.9800 H         1 <0>         0.1335
     24 H3          5.8243    0.8947    2.5465 H         1 <0>         0.1297
     25 H4          6.1068    2.6455   -0.8610 H         1 <0>         0.4557
     26 H5          5.4076   -0.8141   -0.2948 H         1 <0>         0.1584
     27 H6          3.1756   -1.8219   -0.0671 H         1 <0>         0.1338
     28 H7          1.2046   -0.3917    0.2815 H         1 <0>         0.1283
     29 H8          3.6981    3.0794    0.1568 H         1 <0>         0.1446
     30 H9          0.3813    1.9044    1.0740 H         1 <0>         0.4311
     31 H10        -1.1313    2.8207    1.1610 H         1 <0>         0.1310
     32 H11        -3.1611    4.1879    1.3692 H         1 <0>         0.1317
     33 H12        -3.2915    6.3881    0.2770 H         1 <0>         0.1308
     34 H13        -1.3913    7.2420   -1.0252 H         1 <0>         0.1352
     35 H14         0.8146    6.9735   -1.8769 H         1 <0>         0.4333
@<TRIPOS>BOND
     1    1    2 1
     2    1   22 1
     3    1   23 1
     4    1   24 1
     5    2    3 2
     6    2    4 2
     7    2    5 1
     8    5    6 1
     9    5   25 1
    10    6   11 ar
    11    6    7 ar
    12    7    8 ar
    13    7   26 1
    14    8    9 ar
    15    8   27 1
    16    9   10 ar
    17    9   28 1
    18   10   11 ar
    19   10   12 1
    20   11   29 1
    21   12   13 am
    22   12   30 1
    23   13   14 2
    24   13   15 1
    25   15   20 ar
    26   15   16 ar
    27   16   17 ar
    28   16   31 1
    29   17   18 ar
    30   17   32 1
    31   18   19 ar
    32   18   33 1
    33   19   20 ar
    34   19   34 1
    35   20   21 1
    36   21   35 1
@<TRIPOS>MOLECULE
ZINC40983003
   42    44     0     0     0
SMALL
USER_CHARGES

@<TRIPOS>ATOM
      1 C1          1.1031    1.8893    0.2032 C.3       1 <0>        -0.1459
      2 C2          0.9931    0.3636    0.2377 C.3       1 <0>        -0.1103
      3 C3          1.5065   -0.2147   -1.0824 C.3       1 <0>        -0.1053
      4 S1          1.3761   -2.0235   -1.0415 S.3       1 <0>         0.0163
      5 C4          1.9974   -2.5313   -2.6102 C.2       1 <0>         0.2181
      6 N1          2.4543   -1.7124   -3.5690 N.2       1 <0>        -0.5467
      7 C5          2.8357   -2.4174   -4.5992 C.2       1 <0>         0.5064
      8 N2          2.6311   -3.7267   -4.3129 N.pl3     1 <0>        -0.3804
      9 N3          2.0933   -3.7754   -3.0277 N.2       1 <0>        -0.2651
     10 C6          2.9522   -4.8148   -5.2327 C.3       1 <0>         0.2805
     11 H1          2.1062   -5.4992   -5.2955 H         1 <0>         0.1114
     12 C7          3.2421   -4.2486   -6.5972 C.2       1 <0>        -0.2890
     13 C8          3.4322   -2.9405   -6.8216 C.2       1 <0>         0.2095
     14 N4          3.3650   -2.0081   -5.8155 N.pl3     1 <0>        -0.6113
     15 C9          3.7293   -2.4779   -8.2247 C.3       1 <0>        -0.1338
     16 C10         3.3181   -5.1390   -7.6945 C.2       1 <0>         0.5961
     17 O1          2.2983   -5.5297   -8.2333 O.2       1 <0>        -0.5308
     18 N5          4.5191   -5.5546   -8.1432 N.am      1 <0>        -0.8454
     19 C11         4.1630   -5.5575   -4.7292 C.ar      1 <0>        -0.1051
     20 C12         5.3623   -4.8910   -4.5614 C.ar      1 <0>        -0.0948
     21 C13         6.4729   -5.5722   -4.0995 C.ar      1 <0>        -0.1196
     22 C14         6.3841   -6.9199   -3.8050 C.ar      1 <0>        -0.1065
     23 C15         5.1845   -7.5862   -3.9720 C.ar      1 <0>        -0.1157
     24 C16         4.0728   -6.9040   -4.4298 C.ar      1 <0>        -0.0906
     25 H2          2.1454    2.1753    0.0622 H         1 <0>         0.0578
     26 H3          0.5050    2.2781   -0.6208 H         1 <0>         0.0580
     27 H4          0.7373    2.3013    1.1438 H         1 <0>         0.0631
     28 H5          1.5912   -0.0252    1.0618 H         1 <0>         0.0742
     29 H6         -0.0492    0.0776    0.3787 H         1 <0>         0.0744
     30 H7          0.9084    0.1742   -1.9065 H         1 <0>         0.0930
     31 H8          2.5488    0.0713   -1.2234 H         1 <0>         0.0927
     32 H9          3.6757   -1.0990   -5.9494 H         1 <0>         0.4397
     33 H10         2.7941   -2.3388   -8.7671 H         1 <0>         0.0986
     34 H11         4.2723   -1.5334   -8.1885 H         1 <0>         0.0869
     35 H12         4.3364   -3.2267   -8.7333 H         1 <0>         0.0955
     36 H13         5.3314   -5.2434   -7.7140 H         1 <0>         0.4029
     37 H14         4.5712   -6.1649   -8.8953 H         1 <0>         0.4054
     38 H15         5.4317   -3.8380   -4.7914 H         1 <0>         0.1116
     39 H16         7.4101   -5.0516   -3.9691 H         1 <0>         0.1245
     40 H17         7.2520   -7.4523   -3.4449 H         1 <0>         0.1259
     41 H18         5.1152   -8.6393   -3.7423 H         1 <0>         0.1279
     42 H19         3.1346   -7.4238   -4.5567 H         1 <0>         0.1258
@<TRIPOS>BOND
     1    1    2 1
     2    1   25 1
     3    1   26 1
     4    1   27 1
     5    2    3 1
     6    2   28 1
     7    2   29 1
     8    3    4 1
     9    3   30 1
    10    3   31 1
    11    4    5 1
    12    5    9 2
    13    5    6 1
    14    6    7 2
    15    7   14 1
    16    7    8 1
    17    8    9 1
    18    8   10 1
    19   10   11 1
    20   10   12 1
    21   10   19 1
    22   12   13 2
    23   12   16 1
    24   13   14 1
    25   13   15 1
    26   14   32 1
    27   15   33 1
    28   15   34 1
    29   15   35 1
    30   16   17 2
    31   16   18 am
    32   18   36 1
    33   18   37 1
    34   19   24 ar
    35   19   20 ar
    36   20   21 ar
    37   20   38 1
    38   21   22 ar
    39   21   39 1
    40   22   23 ar
    41   22   40 1
    42   23   24 ar
    43   23   41 1
    44   24   42 1
@<TRIPOS>MOLECULE
ZINC03578719
   40    42     0     0     0
SMALL
USER_CHARGES

@<TRIPOS>ATOM
      1 C1         -0.0184    1.5028    0.0103 C.3       1 <0>        -0.1133
      2 C2          0.0021   -0.0041    0.0020 C.ar      1 <0>        -0.0465
      3 C3          0.0057   -0.6865   -1.1953 C.ar      1 <0>        -0.0939
      4 C4          0.0244   -2.0719   -1.2224 C.ar      1 <0>        -0.1163
      5 C5          0.0397   -2.7903   -0.0422 C.ar      1 <0>        -0.0590
      6 C6          0.0363   -2.1192    1.1715 C.ar      1 <0>        -0.1020
      7 C7          0.0231   -0.7097    1.2094 C.ar      1 <0>         0.1010
      8 N1          0.0293   -0.2971    2.5038 N.2       1 <0>        -0.4959
      9 C8          0.0507   -1.2922    3.3521 C.2       1 <0>         0.3331
     10 C9          0.0484   -2.5535    2.5870 C.2       1 <0>         0.1036
     11 N2          0.0668   -3.7809    3.0544 N.2       1 <0>        -0.1728
     12 N3          0.0752   -3.9860    4.3279 N.pl3     1 <0>        -0.4709
     13 C10         0.0941   -5.2454    4.8075 C.2       1 <0>         0.5556
     14 S1          0.1053   -5.5177    6.4976 S.2       1 <0>        -0.5586
     15 N4          0.1040   -6.2905    3.9565 N.pl3     1 <0>        -0.6435
     16 C11         0.1245   -7.6595    4.4778 C.3       1 <0>         0.1171
     17 C12         0.1323   -8.6494    3.3112 C.3       1 <0>         0.0633
     18 H1          1.0066   -8.4841    2.6815 H         1 <0>         0.0818
     19 C13         0.1187  -10.1053    3.8412 C.3       1 <0>        -0.1458
     20 C14        -0.5075  -10.8531    2.6326 C.3       1 <0>        -0.1555
     21 C15        -1.4982   -9.8072    2.0777 C.3       1 <0>         0.0501
     22 O1         -1.0711   -8.5182    2.5379 O.3       1 <0>        -0.3801
     23 O2          0.0619   -1.1835    4.7024 O.3       1 <0>        -0.4487
     24 H2          1.0042    1.8801    0.0026 H         1 <0>         0.0741
     25 H3         -0.5455    1.8639   -0.8728 H         1 <0>         0.0698
     26 H4         -0.5286    1.8543    0.9071 H         1 <0>         0.0741
     27 H5         -0.0065   -0.1349   -2.1238 H         1 <0>         0.1364
     28 H6          0.0267   -2.5918   -2.1690 H         1 <0>         0.1363
     29 H7          0.0539   -3.8700   -0.0648 H         1 <0>         0.1312
     30 H8          0.0680   -3.2339    4.9404 H         1 <0>         0.4283
     31 H9          0.0977   -6.1362    2.9988 H         1 <0>         0.4163
     32 H10         1.0192   -7.8044    5.0832 H         1 <0>         0.1087
     33 H11        -0.7606   -7.8279    5.0913 H         1 <0>         0.1025
     34 H12         1.1298  -10.4599    4.0415 H         1 <0>         0.0917
     35 H13        -0.5098  -10.1950    4.7271 H         1 <0>         0.0884
     36 H14         0.2534  -11.0982    1.8915 H         1 <0>         0.0797
     37 H15        -1.0334  -11.7495    2.9612 H         1 <0>         0.0879
     38 H16        -1.4891   -9.8309    0.9880 H         1 <0>         0.0719
     39 H17        -2.5026  -10.0180    2.4450 H         1 <0>         0.0734
     40 H18         0.0524   -0.2715    5.0236 H         1 <0>         0.4262
@<TRIPOS>BOND
     1    1    2 1
     2    1   24 1
     3    1   25 1
     4    1   26 1
     5    2    7 ar
     6    2    3 ar
     7    3    4 ar
     8    3   27 1
     9    4    5 ar
    10    4   28 1
    11    5    6 ar
    12    5   29 1
    13    6   10 1
    14    6    7 ar
    15    7    8 1
    16    8    9 2
    17    9   10 1
    18    9   23 1
    19   10   11 2
    20   11   12 1
    21   12   13 1
    22   12   30 1
    23   13   14 2
    24   13   15 1
    25   15   16 1
    26   15   31 1
    27   16   17 1
    28   16   32 1
    29   16   33 1
    30   17   18 1
    31   17   22 1
    32   17   19 1
    33   19   20 1
    34   19   34 1
    35   19   35 1
    36   20   21 1
    37   20   36 1
    38   20   37 1
    39   21   22 1
    40   21   38 1
    41   21   39 1
    42   23   40 1
@<TRIPOS>MOLECULE
ZINC65833095
   42    43     0     0     0
SMALL
USER_CHARGES

@<TRIPOS>ATOM
      1 C1         -0.0184    1.5028    0.0103 C.3       1 <0>        -0.1294
      2 C2          0.0021   -0.0041    0.0020 C.ar      1 <0>        -0.0232
      3 C3          0.0057   -0.6888   -1.1991 C.ar      1 <0>        -0.1370
      4 C4          0.0245   -2.0707   -1.2067 C.ar      1 <0>        -0.0183
      5 C5          0.0400   -2.7685   -0.0132 C.ar      1 <0>        -0.6839
      6 C6          0.0373   -2.0840    1.1875 C.ar      1 <0>        -0.0191
      7 C7          0.0229   -0.7015    1.1951 C.ar      1 <0>        -0.1045
      8 C8          0.0252    0.0449    2.5043 C.3       1 <0>        -0.1215
      9 S1          0.0628   -4.5303   -0.0229 S.o2      1 <0>         2.6953
     10 O1         -0.4759   -4.9503    1.2232 O.2       1 <0>        -0.9362
     11 O2         -0.4897   -4.9367   -1.2674 O.2       1 <0>        -0.9376
     12 N1          1.6509   -4.9994   -0.0342 N.pl3     1 <0>        -0.9146
     13 N2          2.5004   -4.6218    1.0139 N.am      1 <0>        -0.5178
     14 C9          3.1840   -5.5600    1.6986 C.2       1 <0>         0.7180
     15 O3          3.9213   -5.2323    2.6082 O.2       1 <0>        -0.5690
     16 N3          3.0505   -6.8615    1.3750 N.am      1 <0>        -0.7307
     17 C10         3.7936   -7.8813    2.1193 C.3       1 <0>         0.1537
     18 C11         5.1839   -8.0906    1.4845 C.3       1 <0>        -0.1361
     19 C12         5.4366   -9.6130    1.6168 C.3       1 <0>        -0.1252
     20 C13         4.0354  -10.2166    1.3500 C.3       1 <0>        -0.1250
     21 C14         3.0633   -9.2330    2.0338 C.3       1 <0>        -0.1339
     22 H1          1.0042    1.8801    0.0026 H         1 <0>         0.0817
     23 H2         -0.5455    1.8639   -0.8728 H         1 <0>         0.0746
     24 H3         -0.5286    1.8543    0.9071 H         1 <0>         0.0770
     25 H4         -0.0064   -0.1437   -2.1314 H         1 <0>         0.1356
     26 H5          0.0266   -2.6056   -2.1449 H         1 <0>         0.1421
     27 H6          0.0491   -2.6290    2.1199 H         1 <0>         0.1425
     28 H7         -1.0017    0.2110    2.8297 H         1 <0>         0.0763
     29 H8          0.5542   -0.5412    3.2558 H         1 <0>         0.0731
     30 H9          0.5249    1.0049    2.3743 H         1 <0>         0.0737
     31 H10         1.9930   -5.5357   -0.7666 H         1 <0>         0.4240
     32 H11         2.5965   -3.6851    1.2468 H         1 <0>         0.4315
     33 H12         2.4623   -7.1230    0.6493 H         1 <0>         0.3969
     34 H13         3.8997   -7.5795    3.1613 H         1 <0>         0.0961
     35 H14         5.1725   -7.7956    0.4352 H         1 <0>         0.0695
     36 H15         5.9414   -7.5292    2.0313 H         1 <0>         0.0730
     37 H16         6.1524   -9.9523    0.8680 H         1 <0>         0.0696
     38 H17         5.7795   -9.8618    2.6212 H         1 <0>         0.0708
     39 H18         3.8385  -10.2649    0.2790 H         1 <0>         0.0671
     40 H19         3.9547  -11.2067    1.7987 H         1 <0>         0.0701
     41 H20         2.8158   -9.5877    3.0343 H         1 <0>         0.0787
     42 H21         2.1560   -9.1303    1.4385 H         1 <0>         0.0718
@<TRIPOS>BOND
     1    1    2 1
     2    1   22 1
     3    1   23 1
     4    1   24 1
     5    2    7 ar
     6    2    3 ar
     7    3    4 ar
     8    3   25 1
     9    4    5 ar
    10    4   26 1
    11    5    6 ar
    12    5    9 1
    13    6    7 ar
    14    6   27 1
    15    7    8 1
    16    8   28 1
    17    8   29 1
    18    8   30 1
    19    9   10 2
    20    9   11 2
    21    9   12 1
    22   12   13 1
    23   12   31 1
    24   13   14 am
    25   13   32 1
    26   14   15 2
    27   14   16 am
    28   16   17 1
    29   16   33 1
    30   17   21 1
    31   17   18 1
    32   17   34 1
    33   18   19 1
    34   18   35 1
    35   18   36 1
    36   19   20 1
    37   19   37 1
    38   19   38 1
    39   20   21 1
    40   20   39 1
    41   20   40 1
    42   21   41 1
    43   21   42 1
@<TRIPOS>MOLECULE
ZINC19227825
   54    55     0     0     0
SMALL
USER_CHARGES
2-[(2R)-1-(2,2-dimethylpropyl)-3-oxo-piperazin-2-yl]-N-[(1-ethylpyrazol-4-yl)methyl]acetamide
@<TRIPOS>ATOM
      1 C1         -3.1654    5.4222    8.2566 C.3       1 <0>        -0.1701
      2 C2         -2.9430    5.7775    6.7851 C.3       1 <0>         0.1223
      3 N1         -1.8342    4.9816    6.2528 N.pl3     1 <0>        -0.3610
      4 C3         -1.8796    4.1846    5.1648 C.2       1 <0>         0.0860
      5 C4         -0.6555    3.6293    5.0089 C.2       1 <0>        -0.2800
      6 C5          0.1644    4.0985    6.0403 C.2       1 <0>         0.0623
      7 N2         -0.5394    4.9139    6.7831 N.2       1 <0>        -0.2842
      8 C6         -0.2493    2.6698    3.9201 C.3       1 <0>         0.2016
      9 N3          0.2635    3.4223    2.7724 N.am      1 <0>        -0.7073
     10 C7          0.6886    2.7683    1.6734 C.2       1 <0>         0.5113
     11 O1          0.6467    1.5568    1.6344 O.2       1 <0>        -0.5613
     12 C8          1.2161    3.5423    0.4928 C.3       1 <0>        -0.1673
     13 C9          1.5875    2.5707   -0.6293 C.3       1 <0>         0.0407
     14 H1          2.0089    3.1016   -1.4957 H         1 <0>         0.1657
     15 C10         0.3628    1.8138   -1.0593 C.2       1 <0>         0.5224
     16 O2         -0.6792    2.4205   -1.1898 O.2       1 <0>        -0.5052
     17 N4          0.3749    0.5003   -1.3094 N.am      1 <0>        -0.7241
     18 C11         1.5685   -0.3263   -1.1538 C.3       1 <0>         0.0905
     19 C12         2.8175    0.5565   -1.1252 C.3       1 <0>        -0.0461
     20 N5          2.6115    1.6353   -0.1452 N.4       1 <0>        -0.4090
     21 C13         3.8712    2.3351    0.1399 C.3       1 <0>        -0.0107
     22 C14         4.6288    1.5928    1.2426 C.3       1 <0>        -0.0834
     23 C15         5.0352    0.2068    0.7380 C.3       1 <0>        -0.1777
     24 C16         5.8815    2.3847    1.6227 C.3       1 <0>        -0.1471
     25 C17         3.7272    1.4446    2.4698 C.3       1 <0>        -0.1703
     26 H2         -3.9979    6.0198    8.6563 H         1 <0>         0.0819
     27 H3         -2.2510    5.6388    8.8283 H         1 <0>         0.0732
     28 H4         -3.4072    4.3526    8.3430 H         1 <0>         0.0621
     29 H5         -3.8574    5.5609    6.2134 H         1 <0>         0.1012
     30 H6         -2.7012    6.8471    6.6986 H         1 <0>         0.0920
     31 H7         -2.7391    4.0192    4.5321 H         1 <0>         0.1759
     32 H8          1.2004    3.8356    6.1951 H         1 <0>         0.1829
     33 H9          0.5351    1.9974    4.2978 H         1 <0>         0.0816
     34 H10        -1.1222    2.0769    3.6094 H         1 <0>         0.0792
     35 H11         0.3015    4.5211    2.8077 H         1 <0>         0.4347
     36 H12         0.4424    4.2374    0.1348 H         1 <0>         0.1545
     37 H13         2.1078    4.1107    0.7958 H         1 <0>         0.1298
     38 H14        -0.5687    0.0460   -1.6460 H         1 <0>         0.4522
     39 H15         1.5033   -0.8909   -0.2120 H         1 <0>         0.0948
     40 H16         1.6411   -1.0281   -1.9977 H         1 <0>         0.1249
     41 H17         3.6884   -0.0498   -0.8355 H         1 <0>         0.1668
     42 H18         2.9857    0.9863   -2.1237 H         1 <0>         0.1348
     43 H19         4.4873    2.3667   -0.7708 H         1 <0>         0.1340
     44 H20         3.6538    3.3612    0.4713 H         1 <0>         0.1301
     45 H21         5.5799   -0.3269    1.5308 H         1 <0>         0.0873
     46 H22         5.6834    0.3134   -0.1443 H         1 <0>         0.0778
     47 H23         4.1345   -0.3625    0.4648 H         1 <0>         0.0623
     48 H24         6.4261    1.8510    2.4155 H         1 <0>         0.0797
     49 H25         5.5893    3.3812    1.9855 H         1 <0>         0.0683
     50 H26         6.5297    2.4912    0.7404 H         1 <0>         0.0704
     51 H27         4.2719    0.9109    3.2626 H         1 <0>         0.0913
     52 H28         2.8266    0.8752    2.1965 H         1 <0>         0.0589
     53 H29         3.4350    2.4411    2.8326 H         1 <0>         0.0712
     54 H30         2.2585    1.1907    0.7970 H         1 <0>         0.4480
@<TRIPOS>BOND
     1    1    2 1
     2    1   26 1
     3    1   27 1
     4    1   28 1
     5    2    3 1
     6    2   29 1
     7    2   30 1
     8    3    7 1
     9    3    4 1
    10    4    5 2
    11    4   31 1
    12    5    6 1
    13    5    8 1
    14    6    7 2
    15    6   32 1
    16    8    9 1
    17    8   33 1
    18    8   34 1
    19    9   10 am
    20    9   35 1
    21   10   11 2
    22   10   12 1
    23   12   13 1
    24   12   36 1
    25   12   37 1
    26   13   14 1
    27   13   20 1
    28   13   15 1
    29   15   16 2
    30   15   17 am
    31   17   18 1
    32   17   38 1
    33   18   19 1
    34   18   39 1
    35   18   40 1
    36   19   20 1
    37   19   41 1
    38   19   42 1
    39   20   21 1
    40   20   54 1
    41   21   22 1
    42   21   43 1
    43   21   44 1
    44   22   23 1
    45   22   24 1
    46   22   25 1
    47   23   45 1
    48   23   46 1
    49   23   47 1
    50   24   48 1
    51   24   49 1
    52   24   50 1
    53   25   51 1
    54   25   52 1
    55   25   53 1
@<TRIPOS>MOLECULE
ZINC48235249
   57    59     0     0     0
SMALL
USER_CHARGES

@<TRIPOS>ATOM
      1 C1         -0.0364    1.5280    0.1426 C.3       1 <0>        -0.1530
      2 C2         -0.0103   -0.0013    0.1025 C.3       1 <0>        -0.1401
      3 C3         -1.4437   -0.5352    0.0712 C.3       1 <0>         0.1023
      4 N1         -1.4187   -1.9995    0.0329 N.am      1 <0>        -0.5356
      5 C4         -1.3870   -2.6518   -1.1788 C.2       1 <0>         0.4616
      6 C5         -1.3633   -4.0199   -1.2038 C.2       1 <0>        -0.1087
      7 C6         -1.3721   -4.7245    0.0134 C.2       1 <0>         0.5521
      8 O1         -1.3511   -5.9440    0.0165 O.2       1 <0>        -0.5153
      9 N2         -1.4035   -4.0441    1.1760 N.am      1 <0>        -0.5571
     10 C7         -1.4213   -2.6990    1.1824 C.2       1 <0>         0.7088
     11 O2         -1.4448   -2.1058    2.2438 O.2       1 <0>        -0.5369
     12 C8         -1.4132   -4.7760    2.4451 C.3       1 <0>         0.0939
     13 C9          0.0255   -5.0068    2.9118 C.3       1 <0>        -0.0193
     14 N3          0.0158   -5.7406    4.1843 N.4       1 <0>        -0.3893
     15 C10        -0.4659   -7.1294    3.9710 C.3       1 <0>        -0.0101
     16 C11         0.1004   -7.8929    5.1944 C.3       1 <0>        -0.1443
     17 C12         1.4892   -7.2439    5.3943 C.3       1 <0>        -0.1443
     18 C13         1.3922   -5.8676    4.7103 C.3       1 <0>        -0.0068
     19 N4         -1.3310   -4.7147   -2.4351 N.pl3     1 <0>        -0.6219
     20 C14        -0.1797   -4.5839   -3.3385 C.3       1 <0>         0.1361
     21 C15         0.3453   -5.9834   -3.6740 C.3       1 <0>        -0.1338
     22 C16        -0.7987   -6.8326   -4.2327 C.3       1 <0>        -0.1173
     23 C17        -1.8978   -6.9693   -3.1765 C.3       1 <0>        -0.1356
     24 C18        -2.4454   -5.5858   -2.8326 C.3       1 <0>         0.1512
     25 N5         -1.3796   -1.9352   -2.3536 N.pl3     1 <0>        -0.8275
     26 H1          0.9849    1.9083    0.1649 H         1 <0>         0.0670
     27 H2         -0.5456    1.9060   -0.7439 H         1 <0>         0.0613
     28 H3         -0.5670    1.8590    1.0353 H         1 <0>         0.0631
     29 H4          0.5203   -0.3323   -0.7902 H         1 <0>         0.0684
     30 H5          0.4990   -0.3793    0.9890 H         1 <0>         0.0724
     31 H6         -1.9743   -0.2042    0.9640 H         1 <0>         0.1131
     32 H7         -1.9530   -0.1572   -0.8153 H         1 <0>         0.0952
     33 H8         -1.9498   -4.1952    3.1954 H         1 <0>         0.1163
     34 H9         -1.9088   -5.7369    2.3066 H         1 <0>         0.1193
     35 H10         0.5621   -5.5875    2.1615 H         1 <0>         0.1347
     36 H11         0.5211   -4.0459    3.0503 H         1 <0>         0.1329
     37 H12        -1.5554   -7.1624    3.9675 H         1 <0>         0.1368
     38 H13        -0.0647   -7.5375    3.0433 H         1 <0>         0.1373
     39 H14        -0.5281   -7.7369    6.0712 H         1 <0>         0.0989
     40 H15         0.1996   -8.9557    4.9737 H         1 <0>         0.1173
     41 H16         1.7015   -7.1242    6.4568 H         1 <0>         0.1059
     42 H17         2.2615   -7.8488    4.9193 H         1 <0>         0.1039
     43 H18         2.1095   -5.8084    3.8917 H         1 <0>         0.1295
     44 H19         1.5868   -5.0778    5.4359 H         1 <0>         0.1336
     45 H20        -0.4891   -4.0804   -4.2543 H         1 <0>         0.0527
     46 H21         0.6050   -4.0069   -2.8491 H         1 <0>         0.0648
     47 H22         1.1379   -5.9059   -4.4182 H         1 <0>         0.0675
     48 H23         0.7379   -6.4508   -2.7709 H         1 <0>         0.0628
     49 H24        -1.2072   -6.3519   -5.1217 H         1 <0>         0.0615
     50 H25        -0.4224   -7.8213   -4.4953 H         1 <0>         0.0613
     51 H26        -2.7016   -7.5936   -3.5667 H         1 <0>         0.0659
     52 H27        -1.4841   -7.4275   -2.2782 H         1 <0>         0.0692
     53 H28        -3.1552   -5.6696   -2.0096 H         1 <0>         0.0651
     54 H29        -2.9438   -5.1658   -3.7063 H         1 <0>         0.0497
     55 H30        -1.4503   -0.9681   -2.3322 H         1 <0>         0.4071
     56 H31        -1.3036   -2.3973   -3.2031 H         1 <0>         0.4283
     57 H32        -0.5707   -5.2671    4.8550 H         1 <0>         0.4283
@<TRIPOS>BOND
     1    1    2 1
     2    1   26 1
     3    1   27 1
     4    1   28 1
     5    2    3 1
     6    2   29 1
     7    2   30 1
     8    3    4 1
     9    3   31 1
    10    3   32 1
    11    4   10 am
    12    4    5 1
    13    5    6 2
    14    5   25 1
    15    6    7 1
    16    6   19 1
    17    7    8 2
    18    7    9 am
    19    9   10 am
    20    9   12 1
    21   10   11 2
    22   12   13 1
    23   12   33 1
    24   12   34 1
    25   13   14 1
    26   13   35 1
    27   13   36 1
    28   14   18 1
    29   14   15 1
    30   14   57 1
    31   15   16 1
    32   15   37 1
    33   15   38 1
    34   16   17 1
    35   16   39 1
    36   16   40 1
    37   17   18 1
    38   17   41 1
    39   17   42 1
    40   18   43 1
    41   18   44 1
    42   19   24 1
    43   19   20 1
    44   20   21 1
    45   20   45 1
    46   20   46 1
    47   21   22 1
    48   21   47 1
    49   21   48 1
    50   22   23 1
    51   22   49 1
    52   22   50 1
    53   23   24 1
    54   23   51 1
    55   23   52 1
    56   24   53 1
    57   24   54 1
    58   25   55 1
    59   25   56 1
@<TRIPOS>MOLECULE
ZINC62639885
   46    49     0     0     0
SMALL
USER_CHARGES

@<TRIPOS>ATOM
      1 C1          1.0710   -0.4537   -0.7673 C.ar      1 <0>        -0.0889
      2 C2          2.2557    0.2563   -0.7808 C.ar      1 <0>        -0.1331
      3 C3          2.3774    1.4162   -0.0344 C.ar      1 <0>         0.0935
      4 C4          1.3122    1.8666    0.7272 C.ar      1 <0>        -0.1319
      5 C5          0.1260    1.1593    0.7438 C.ar      1 <0>        -0.1120
      6 C6          0.0017   -0.0035   -0.0046 C.ar      1 <0>         0.1395
      7 N1         -1.2007   -0.7217    0.0101 N.am      1 <0>        -0.6763
      8 C7         -1.1846   -2.0650   -0.0990 C.2       1 <0>         0.7078
      9 O1         -0.1250   -2.6612   -0.1129 O.2       1 <0>        -0.5559
     10 N2         -2.3431   -2.7474   -0.1927 N.am      1 <0>        -0.7434
     11 C8         -2.3257   -4.2074   -0.3113 C.3       1 <0>         0.1511
     12 H1         -1.4582   -4.5293   -0.8875 H         1 <0>         0.1386
     13 C9         -2.3108   -4.8595    1.0904 C.3       1 <0>        -0.1565
     14 C10        -3.8046   -5.1900    1.3346 C.3       1 <0>        -0.0094
     15 N3         -4.2834   -5.6110   -0.0069 N.4       1 <0>        -0.3969
     16 C11        -3.6229   -4.7053   -0.9752 C.3       1 <0>        -0.0128
     17 C12        -5.7428   -5.4668   -0.0922 C.3       1 <0>         0.1013
     18 C13        -6.4000   -6.4441    0.8479 C.2       1 <0>         0.2158
     19 N4         -6.7115   -6.2150    2.0934 N.2       1 <0>        -0.4858
     20 C14        -7.2803   -7.2996    2.6315 C.2       1 <0>         0.2914
     21 N5         -7.3378   -8.2371    1.7297 N.2       1 <0>        -0.2931
     22 O2         -6.7697   -7.6952    0.5466 O.3       1 <0>        -0.0849
     23 C15        -7.7738   -7.4175    4.0505 C.3       1 <0>        -0.1081
     24 C16        -8.2094   -8.8021    4.5343 C.3       1 <0>        -0.1515
     25 C17        -9.2584   -7.7230    4.2591 C.3       1 <0>        -0.1452
     26 F1          3.5370    2.1092   -0.0490 F         1 <0>        -0.1339
     27 H2          0.9750   -1.3559   -1.3531 H         1 <0>         0.1439
     28 H3          3.0878   -0.0938   -1.3737 H         1 <0>         0.1425
     29 H4          1.4092    2.7713    1.3090 H         1 <0>         0.1441
     30 H5         -0.7042    1.5105    1.3385 H         1 <0>         0.1371
     31 H6         -2.0449   -0.2524    0.0988 H         1 <0>         0.4107
     32 H7         -3.1884   -2.2717   -0.1816 H         1 <0>         0.4025
     33 H8         -1.7102   -5.7691    1.0863 H         1 <0>         0.1127
     34 H9         -1.9438   -4.1570    1.8387 H         1 <0>         0.1254
     35 H10        -3.9062   -6.0041    2.0523 H         1 <0>         0.1357
     36 H11        -4.3435   -4.3059    1.6754 H         1 <0>         0.1433
     37 H12        -4.2742   -3.8601   -1.1976 H         1 <0>         0.1442
     38 H13        -3.3871   -5.2469   -1.8912 H         1 <0>         0.1576
     39 H14        -6.0243   -4.4508    0.1847 H         1 <0>         0.1750
     40 H15        -6.0688   -5.6688   -1.1125 H         1 <0>         0.1717
     41 H16        -7.2887   -6.7612    4.7730 H         1 <0>         0.1481
     42 H17        -8.1390   -9.6278    3.8262 H         1 <0>         0.1073
     43 H18        -8.0107   -9.0571    5.5753 H         1 <0>         0.1194
     44 H19        -9.7499   -7.2679    5.1191 H         1 <0>         0.1203
     45 H20        -9.8782   -7.8386    3.3700 H         1 <0>         0.1025
     46 H21        -4.0157   -6.5669   -0.1876 H         1 <0>         0.4368
@<TRIPOS>BOND
     1    1    6 ar
     2    1    2 ar
     3    1   27 1
     4    2    3 ar
     5    2   28 1
     6    3    4 ar
     7    3   26 1
     8    4    5 ar
     9    4   29 1
    10    5    6 ar
    11    5   30 1
    12    6    7 1
    13    7    8 am
    14    7   31 1
    15    8    9 2
    16    8   10 am
    17   10   11 1
    18   10   32 1
    19   11   12 1
    20   11   16 1
    21   11   13 1
    22   13   14 1
    23   13   33 1
    24   13   34 1
    25   14   15 1
    26   14   35 1
    27   14   36 1
    28   15   16 1
    29   15   17 1
    30   15   46 1
    31   16   37 1
    32   16   38 1
    33   17   18 1
    34   17   39 1
    35   17   40 1
    36   18   22 1
    37   18   19 2
    38   19   20 1
    39   20   21 2
    40   20   23 1
    41   21   22 1
    42   23   25 1
    43   23   24 1
    44   23   41 1
    45   24   25 1
    46   24   42 1
    47   24   43 1
    48   25   44 1
    49   25   45 1
@<TRIPOS>MOLECULE
ZINC65577125
   51    53     0     0     0
SMALL
USER_CHARGES

@<TRIPOS>ATOM
      1 C1         -0.0187    1.5258    0.0104 C.3       1 <0>        -0.1888
      2 C2          0.0021   -0.0041    0.0020 C.3       1 <0>        -0.0089
      3 N1          0.6897   -0.4778   -1.2066 N.4       1 <0>        -0.3906
      4 C3         -0.0977   -0.1111   -2.4030 C.3       1 <0>        -0.0098
      5 C4          0.0876   -1.3002   -3.3783 C.3       1 <0>        -0.1418
      6 C5          0.0948   -2.5070   -2.4033 C.3       1 <0>        -0.1191
      7 H1         -0.9229   -2.8070   -2.1539 H         1 <0>         0.1146
      8 C6          0.8183   -1.9459   -1.1611 C.3       1 <0>        -0.0055
      9 C7          0.8716   -3.6814   -3.0019 C.3       1 <0>         0.1468
     10 N2          0.1578   -4.1919   -4.1750 N.am      1 <0>        -0.7465
     11 C8          0.6590   -5.2332   -4.8684 C.2       1 <0>         0.7193
     12 O1          1.7036   -5.7489   -4.5205 O.2       1 <0>        -0.5793
     13 N3          0.0023   -5.7028   -5.9476 N.am      1 <0>        -0.6062
     14 C9         -1.2564   -5.0813   -6.3669 C.3       1 <0>         0.0836
     15 C10         0.5471   -6.8347   -6.7014 C.3       1 <0>         0.1795
     16 C11         0.0131   -8.1227   -6.1297 C.2       1 <0>         0.3737
     17 N4          0.4106   -9.2924   -6.6949 N.am      1 <0>        -0.6507
     18 H2          1.0232   -9.2790   -7.4468 H         1 <0>         0.4202
     19 C12        -0.0400  -10.4762   -6.2181 C.2       1 <0>         0.5518
     20 O2          0.3085  -11.5317   -6.7143 O.2       1 <0>        -0.5023
     21 C13        -0.9666  -10.4377   -5.0769 C.ar      1 <0>        -0.1978
     22 C14        -1.4886  -11.5994   -4.5117 C.ar      1 <0>        -0.0385
     23 C15        -2.3535  -11.5052   -3.4436 C.ar      1 <0>        -0.1353
     24 C16        -2.7072  -10.2649   -2.9284 C.ar      1 <0>        -0.0713
     25 C17        -2.2030   -9.1053   -3.4726 C.ar      1 <0>        -0.1118
     26 C18        -1.3241   -9.1746   -4.5556 C.ar      1 <0>         0.1525
     27 N5         -0.7992   -8.0578   -5.1189 N.2       1 <0>        -0.5060
     28 H3          1.0039    1.9031    0.0027 H         1 <0>         0.0803
     29 H4         -0.5459    1.8868   -0.8726 H         1 <0>         0.0794
     30 H5         -0.5289    1.8773    0.9072 H         1 <0>         0.1057
     31 H6          0.5293   -0.3651    0.8851 H         1 <0>         0.1301
     32 H7         -1.0205   -0.3814    0.0098 H         1 <0>         0.1287
     33 H8         -1.1498    0.0064   -2.1435 H         1 <0>         0.1332
     34 H9          0.2896    0.8066   -2.8456 H         1 <0>         0.1359
     35 H10        -0.7473   -1.3669   -4.0759 H         1 <0>         0.1170
     36 H11         1.0351   -1.2237   -3.9118 H         1 <0>         0.1037
     37 H12         1.8711   -2.2269   -1.1867 H         1 <0>         0.1372
     38 H13         0.3514   -2.3311   -0.2546 H         1 <0>         0.1376
     39 H14         1.8654   -3.3462   -3.2987 H         1 <0>         0.0771
     40 H15         0.9623   -4.4735   -2.2587 H         1 <0>         0.0805
     41 H16        -0.6756   -3.7804   -4.4526 H         1 <0>         0.3985
     42 H17        -1.0472   -4.2763   -7.0714 H         1 <0>         0.0613
     43 H18        -1.8885   -5.8287   -6.8465 H         1 <0>         0.0791
     44 H19        -1.7700   -4.6766   -5.4948 H         1 <0>         0.0666
     45 H20         0.2511   -6.7510   -7.7471 H         1 <0>         0.1189
     46 H21         1.6348   -6.8289   -6.6302 H         1 <0>         0.1228
     47 H22        -1.2174  -12.5666   -4.9084 H         1 <0>         0.1403
     48 H23        -2.7602  -12.4036   -3.0033 H         1 <0>         0.1367
     49 H24        -3.3865  -10.2095   -2.0906 H         1 <0>         0.1354
     50 H25        -2.4853   -8.1465   -3.0635 H         1 <0>         0.1345
     51 H26         1.6056   -0.0583   -1.2636 H         1 <0>         0.4276
@<TRIPOS>BOND
     1    1    2 1
     2    1   28 1
     3    1   29 1
     4    1   30 1
     5    2    3 1
     6    2   31 1
     7    2   32 1
     8    3    8 1
     9    3    4 1
    10    3   51 1
    11    4    5 1
    12    4   33 1
    13    4   34 1
    14    5    6 1
    15    5   35 1
    16    5   36 1
    17    6    7 1
    18    6    8 1
    19    6    9 1
    20    8   37 1
    21    8   38 1
    22    9   10 1
    23    9   39 1
    24    9   40 1
    25   10   11 am
    26   10   41 1
    27   11   12 2
    28   11   13 am
    29   13   14 1
    30   13   15 1
    31   14   42 1
    32   14   43 1
    33   14   44 1
    34   15   16 1
    35   15   45 1
    36   15   46 1
    37   16   27 2
    38   16   17 1
    39   17   18 1
    40   17   19 am
    41   19   20 2
    42   19   21 1
    43   21   26 ar
    44   21   22 ar
    45   22   23 ar
    46   22   47 1
    47   23   24 ar
    48   23   48 1
    49   24   25 ar
    50   24   49 1
    51   25   26 ar
    52   25   50 1
    53   26   27 1
@<TRIPOS>MOLECULE
ZINC67002067
   49    50     0     0     0
SMALL
USER_CHARGES

@<TRIPOS>ATOM
      1 C1         -0.0188    1.5264    0.0032 C.3       1 <0>        -0.1900
      2 C2          0.0020   -0.0035   -0.0036 C.3       1 <0>        -0.0097
      3 N1         -1.3761   -0.5119    0.0076 N.4       1 <0>        -0.3821
      4 C3         -2.0258   -0.1377    1.2708 C.3       1 <0>        -0.0598
      5 C4         -1.3591   -1.9753   -0.1196 C.3       1 <0>        -0.0225
      6 C5         -2.7940   -2.4940   -0.2333 C.3       1 <0>         0.1145
      7 N2         -2.7771   -3.9534   -0.3601 N.am      1 <0>        -0.7482
      8 C6         -3.9352   -4.6334   -0.4747 C.2       1 <0>         0.7146
      9 O1         -4.9962   -4.0472   -0.3804 O.2       1 <0>        -0.5771
     10 N3         -3.9170   -5.9631   -0.6938 N.am      1 <0>        -0.6198
     11 C7         -2.6485   -6.7045   -0.6943 C.3       1 <0>         0.1076
     12 C8         -2.5387   -7.4928   -2.0032 C.3       1 <0>        -0.1347
     13 C9         -3.7804   -8.3717   -2.1704 C.3       1 <0>        -0.1051
     14 C10        -5.0274   -7.4873   -2.2424 C.3       1 <0>        -0.1154
     15 H1         -4.9337   -6.7936   -3.0779 H         1 <0>         0.1089
     16 C11        -5.1660   -6.6998   -0.9307 C.3       1 <0>         0.1361
     17 C12        -6.2460   -8.3515   -2.4403 C.2       1 <0>         0.5134
     18 O2         -6.1293   -9.5563   -2.5164 O.2       1 <0>        -0.4569
     19 N4         -7.4657   -7.7854   -2.5328 N.am      1 <0>        -0.6231
     20 C13        -8.5898   -8.5825   -2.7154 C.2       1 <0>         0.2626
     21 N5         -8.6557   -9.8926   -2.8135 N.2       1 <0>        -0.5197
     22 C14        -9.8114  -10.5065   -2.9870 C.2       1 <0>         0.0603
     23 C15       -10.9185   -9.7272   -3.0585 C.2       1 <0>        -0.2363
     24 S1        -10.1977   -8.1061   -2.8572 S.3       1 <0>         0.1117
     25 H2          1.0038    1.9037   -0.0052 H         1 <0>         0.1078
     26 H3         -0.5461    1.8865   -0.8802 H         1 <0>         0.0816
     27 H4         -0.5288    1.8788    0.8997 H         1 <0>         0.0822
     28 H5          0.5121   -0.3559   -0.9001 H         1 <0>         0.1313
     29 H6          0.5294   -0.3636    0.8797 H         1 <0>         0.1307
     30 H7         -1.4728   -0.5686    2.1055 H         1 <0>         0.1251
     31 H8         -2.0384    0.9481    1.3652 H         1 <0>         0.1295
     32 H9         -3.0484   -0.5150    1.2792 H         1 <0>         0.1276
     33 H10        -0.7996   -2.2560   -1.0119 H         1 <0>         0.1377
     34 H11        -0.8839   -2.4109    0.7593 H         1 <0>         0.1371
     35 H12        -3.3536   -2.2134    0.6590 H         1 <0>         0.0906
     36 H13        -3.2693   -2.0584   -1.1122 H         1 <0>         0.0883
     37 H14        -1.9325   -4.4304   -0.3616 H         1 <0>         0.4032
     38 H15        -1.8163   -6.0047   -0.6182 H         1 <0>         0.0760
     39 H16        -2.6277   -7.3934    0.1501 H         1 <0>         0.0815
     40 H17        -2.4684   -6.7991   -2.8409 H         1 <0>         0.0708
     41 H18        -1.6489   -8.1218   -1.9754 H         1 <0>         0.0889
     42 H19        -3.6934   -8.9522   -3.0889 H         1 <0>         0.0835
     43 H20        -3.8636   -9.0483   -1.3199 H         1 <0>         0.0798
     44 H21        -5.3462   -7.3884   -0.1052 H         1 <0>         0.0822
     45 H22        -5.9953   -5.9970   -1.0107 H         1 <0>         0.1017
     46 H23        -7.5590   -6.8218   -2.4720 H         1 <0>         0.4254
     47 H24        -9.8723  -11.5817   -3.0686 H         1 <0>         0.1786
     48 H25       -11.9519  -10.0094   -3.1957 H         1 <0>         0.2020
     49 H26        -1.8881   -0.1131   -0.7650 H         1 <0>         0.4279
@<TRIPOS>BOND
     1    1    2 1
     2    1   25 1
     3    1   26 1
     4    1   27 1
     5    2    3 1
     6    2   28 1
     7    2   29 1
     8    3    4 1
     9    3    5 1
    10    3   49 1
    11    4   30 1
    12    4   31 1
    13    4   32 1
    14    5    6 1
    15    5   33 1
    16    5   34 1
    17    6    7 1
    18    6   35 1
    19    6   36 1
    20    7    8 am
    21    7   37 1
    22    8    9 2
    23    8   10 am
    24   10   16 1
    25   10   11 1
    26   11   12 1
    27   11   38 1
    28   11   39 1
    29   12   13 1
    30   12   40 1
    31   12   41 1
    32   13   14 1
    33   13   42 1
    34   13   43 1
    35   14   15 1
    36   14   16 1
    37   14   17 1
    38   16   44 1
    39   16   45 1
    40   17   18 2
    41   17   19 am
    42   19   20 1
    43   19   46 1
    44   20   24 1
    45   20   21 2
    46   21   22 1
    47   22   23 2
    48   22   47 1
    49   23   24 1
    50   23   48 1
@<TRIPOS>MOLECULE
ZINC14122527
   53    55     0     0     0
SMALL
USER_CHARGES
2-(benzyl-ethyl-amino)-N-(1,3-dioxo-2,4-diazaspiro[4.5]decan-2-yl)acetamide
@<TRIPOS>ATOM
      1 C1         -2.3824   -0.5949    0.8560 C.3       1 <0>        -0.1873
      2 C2         -1.3282   -0.1589    1.8755 C.3       1 <0>        -0.0175
      3 C3          0.3478   -0.0145    0.1340 C.3       1 <0>         0.0441
      4 C4          0.5082    1.4758    0.2906 C.ar      1 <0>        -0.1632
      5 C5         -0.5792    2.3105    0.1124 C.ar      1 <0>        -0.0949
      6 C6         -0.4331    3.6771    0.2609 C.ar      1 <0>        -0.1144
      7 C7          0.8025    4.2097    0.5776 C.ar      1 <0>        -0.0818
      8 C8          1.8912    3.3755    0.7501 C.ar      1 <0>        -0.1128
      9 C9          1.7440    2.0085    0.6068 C.ar      1 <0>        -0.0918
     10 C10         0.0650   -2.0747    1.3742 C.3       1 <0>        -0.0217
     11 C11         0.0857   -2.6315    2.7744 C.2       1 <0>         0.5106
     12 O1          0.1539   -1.8808    3.7245 O.2       1 <0>        -0.4991
     13 N1          0.0283   -3.9636    2.9708 N.am      1 <0>        -0.4832
     14 N2          0.0475   -4.4812    4.2725 N.am      1 <0>        -0.3804
     15 C12        -1.0346   -4.9776    4.9072 C.2       1 <0>         0.5350
     16 O2         -2.1651   -5.0582    4.4767 O.2       1 <0>        -0.4387
     17 C13        -0.5404   -5.4127    6.2678 C.3       1 <0>         0.1410
     18 C14        -0.7434   -6.9125    6.4521 C.3       1 <0>        -0.1175
     19 C15        -0.2115   -7.3377    7.8231 C.3       1 <0>        -0.1185
     20 C16        -0.9530   -6.5674    8.9177 C.3       1 <0>        -0.1285
     21 C17        -0.7196   -5.0665    8.7338 C.3       1 <0>        -0.1181
     22 C18        -1.2534   -4.6321    7.3664 C.3       1 <0>        -0.1160
     23 N3          0.8908   -5.0850    6.2488 N.am      1 <0>        -0.6997
     24 C19         1.1429   -4.5498    5.0388 C.2       1 <0>         0.7078
     25 O3          2.2412   -4.1690    4.6838 O.2       1 <0>        -0.5240
     26 H1         -3.3613   -0.2301    1.1670 H         1 <0>         0.1101
     27 H2         -2.1347   -0.1820   -0.1219 H         1 <0>         0.0832
     28 H3         -2.4022   -1.6831    0.7966 H         1 <0>         0.0784
     29 H4         -1.5557   -0.6014    2.8453 H         1 <0>         0.1321
     30 H5         -1.3335    0.9277    1.9616 H         1 <0>         0.1351
     31 H6         -0.4444   -0.2210   -0.5857 H         1 <0>         0.1435
     32 H7          1.2836   -0.4452   -0.2223 H         1 <0>         0.1393
     33 H8         -1.5437    1.8946   -0.1390 H         1 <0>         0.1317
     34 H9         -1.2836    4.3289    0.1258 H         1 <0>         0.1366
     35 H10         0.9175    5.2777    0.6899 H         1 <0>         0.1363
     36 H11         2.8566    3.7917    0.9972 H         1 <0>         0.1369
     37 H12         2.5945    1.3567    0.7416 H         1 <0>         0.1320
     38 H13        -0.8066   -2.4579    0.8436 H         1 <0>         0.1706
     39 H14         0.9715   -2.3768    0.8496 H         1 <0>         0.1716
     40 H15        -0.0263   -4.5640    2.2109 H         1 <0>         0.4371
     41 H16        -1.8061   -7.1457    6.3868 H         1 <0>         0.0964
     42 H17        -0.2054   -7.4503    5.6714 H         1 <0>         0.0785
     43 H18         0.8546   -7.1188    7.8832 H         1 <0>         0.0668
     44 H19        -0.3712   -8.4073    7.9594 H         1 <0>         0.0818
     45 H20        -0.5809   -6.8759    9.8946 H         1 <0>         0.0751
     46 H21        -2.0201   -6.7798    8.8518 H         1 <0>         0.0718
     47 H22         0.3482   -4.8550    8.7910 H         1 <0>         0.0666
     48 H23        -1.2414   -4.5187    9.5185 H         1 <0>         0.0809
     49 H24        -1.0741   -3.5657    7.2289 H         1 <0>         0.0770
     50 H25        -2.3241   -4.8296    7.3157 H         1 <0>         0.0953
     51 H26         1.5293   -5.2292    6.9646 H         1 <0>         0.4493
     52 N4          0.0172   -0.5993    1.4505 N.4       1 <0>        -0.3818
     53 H27         0.7066   -0.2786    2.1405 H         1 <0>         0.4384
@<TRIPOS>BOND
     1    1    2 1
     2    1   26 1
     3    1   27 1
     4    1   28 1
     5    2   29 1
     6    2   30 1
     7    2   52 1
     8    3    4 1
     9    3   31 1
    10    3   32 1
    11    3   52 1
    12    4    9 ar
    13    4    5 ar
    14    5    6 ar
    15    5   33 1
    16    6    7 ar
    17    6   34 1
    18    7    8 ar
    19    7   35 1
    20    8    9 ar
    21    8   36 1
    22    9   37 1
    23   10   11 1
    24   10   38 1
    25   10   39 1
    26   10   52 1
    27   11   12 2
    28   11   13 am
    29   13   14 1
    30   13   40 1
    31   14   24 am
    32   14   15 am
    33   15   16 2
    34   15   17 1
    35   17   22 1
    36   17   18 1
    37   17   23 1
    38   18   19 1
    39   18   41 1
    40   18   42 1
    41   19   20 1
    42   19   43 1
    43   19   44 1
    44   20   21 1
    45   20   45 1
    46   20   46 1
    47   21   22 1
    48   21   47 1
    49   21   48 1
    50   22   49 1
    51   22   50 1
    52   23   24 am
    53   23   51 1
    54   24   25 2
    55   52   53 1
@<TRIPOS>MOLECULE
ZINC43150943
   61    62     0     0     0
SMALL
USER_CHARGES

@<TRIPOS>ATOM
      1 C1         -0.1556    1.5611    0.0351 C.3       1 <0>        -0.1637
      2 C2         -0.1184    0.0316    0.0257 C.3       1 <0>         0.1366
      3 C3          0.6273   -0.4681    1.2647 C.3       1 <0>        -0.1630
      4 N1         -1.4872   -0.4903    0.0360 N.am      1 <0>        -0.7272
      5 C4         -1.7450   -1.7159   -0.4621 C.2       1 <0>         0.5149
      6 O1         -0.8437   -2.3867   -0.9188 O.2       1 <0>        -0.5243
      7 C5         -3.1531   -2.2527   -0.4515 C.3       1 <0>         0.0346
      8 N2         -3.1693   -3.5965   -1.0446 N.3       1 <0>        -0.5183
      9 C6         -2.4187   -4.5477   -0.2141 C.3       1 <0>         0.0365
     10 C7         -2.3054   -5.8861   -0.9516 C.3       1 <0>         0.1210
     11 N3         -3.6563   -6.3250   -1.3334 N.am      1 <0>        -0.6240
     12 C8         -4.5202   -5.3745   -2.0500 C.3       1 <0>         0.1326
     13 C9         -4.5463   -4.0562   -1.2692 C.3       1 <0>         0.0402
     14 C10        -4.0908   -7.5653   -1.0349 C.2       1 <0>         0.7115
     15 O2         -5.2423   -7.8786   -1.2680 O.2       1 <0>        -0.5701
     16 N4         -3.2490   -8.4584   -0.4779 N.am      1 <0>        -0.7668
     17 C11        -3.6885   -9.8378   -0.2530 C.3       1 <0>         0.1270
     18 C12        -2.5987  -10.6039    0.4996 C.3       1 <0>         0.0388
     19 C13        -1.3594  -10.7818   -0.4017 C.3       1 <0>        -0.1372
     20 C14        -0.8339  -12.1958   -0.0502 C.3       1 <0>        -0.1380
     21 C15        -2.1391  -13.0058    0.1486 C.3       1 <0>        -0.1272
     22 C16        -3.0944  -12.0180    0.8495 C.3       1 <0>        -0.1338
     23 N5         -2.2315   -9.8819    1.7251 N.4       1 <0>        -0.3797
     24 C17        -3.3858   -9.8387    2.6326 C.3       1 <0>        -0.0576
     25 C18        -1.1156  -10.5729    2.3848 C.3       1 <0>        -0.0593
     26 H1          0.8629    1.9494    0.0275 H         1 <0>         0.0758
     27 H2         -0.6868    1.9171   -0.8476 H         1 <0>         0.0636
     28 H3         -0.6694    1.9065    0.9323 H         1 <0>         0.0619
     29 H4          0.3954   -0.3138   -0.8714 H         1 <0>         0.0895
     30 H5          1.6458   -0.0798    1.2571 H         1 <0>         0.0686
     31 H6          0.1135   -0.1227    2.1619 H         1 <0>         0.0566
     32 H7          0.6538   -1.5578    1.2580 H         1 <0>         0.0566
     33 H8         -2.2081    0.0462    0.4013 H         1 <0>         0.4007
     34 H9         -3.5144   -2.3045    0.5756 H         1 <0>         0.0658
     35 H10        -3.7981   -1.5920   -1.0307 H         1 <0>         0.1109
     36 H11        -1.4211   -4.1533   -0.0207 H         1 <0>         0.1091
     37 H12        -2.9410   -4.6962    0.7311 H         1 <0>         0.0319
     38 H13        -1.6947   -5.7609   -1.8458 H         1 <0>         0.0891
     39 H14        -1.8510   -6.6284   -0.2954 H         1 <0>         0.0658
     40 H15        -4.1224   -5.2001   -3.0498 H         1 <0>         0.0829
     41 H16        -5.5301   -5.7786   -2.1201 H         1 <0>         0.1034
     42 H17        -5.0389   -4.2117   -0.3094 H         1 <0>         0.0423
     43 H18        -5.0917   -3.3055   -1.8411 H         1 <0>         0.0970
     44 H19        -2.3522   -8.1879   -0.2259 H         1 <0>         0.3880
     45 H20        -4.6047   -9.8355    0.3374 H         1 <0>         0.0973
     46 H21        -3.8755  -10.3205   -1.2122 H         1 <0>         0.1107
     47 H22        -1.6419  -10.7303   -1.4532 H         1 <0>         0.1146
     48 H23        -0.6079  -10.0270   -0.1702 H         1 <0>         0.0867
     49 H24        -0.2467  -12.6050   -0.8722 H         1 <0>         0.0934
     50 H25        -0.2495  -12.1731    0.8697 H         1 <0>         0.0793
     51 H26        -2.5475  -13.3135   -0.8141 H         1 <0>         0.0868
     52 H27        -1.9565  -13.8741    0.7817 H         1 <0>         0.0883
     53 H28        -3.0617  -12.1688    1.9285 H         1 <0>         0.0915
     54 H29        -4.1114  -12.1584    0.4831 H         1 <0>         0.1078
     55 H30        -3.1424   -9.2269    3.5012 H         1 <0>         0.1273
     56 H31        -4.2410   -9.4072    2.1123 H         1 <0>         0.1253
     57 H32        -3.6306  -10.8499    2.9575 H         1 <0>         0.1282
     58 H33        -0.2590  -10.6050    1.7114 H         1 <0>         0.1291
     59 H34        -0.8431  -10.0372    3.2941 H         1 <0>         0.1265
     60 H35        -1.4167  -11.5894    2.6383 H         1 <0>         0.1276
     61 H36        -1.9528   -8.9410    1.4904 H         1 <0>         0.4168
@<TRIPOS>BOND
     1    1    2 1
     2    1   26 1
     3    1   27 1
     4    1   28 1
     5    2    3 1
     6    2    4 1
     7    2   29 1
     8    3   30 1
     9    3   31 1
    10    3   32 1
    11    4    5 am
    12    4   33 1
    13    5    6 2
    14    5    7 1
    15    7    8 1
    16    7   34 1
    17    7   35 1
    18    8   13 1
    19    8    9 1
    20    9   10 1
    21    9   36 1
    22    9   37 1
    23   10   11 1
    24   10   38 1
    25   10   39 1
    26   11   12 1
    27   11   14 am
    28   12   13 1
    29   12   40 1
    30   12   41 1
    31   13   42 1
    32   13   43 1
    33   14   15 2
    34   14   16 am
    35   16   17 1
    36   16   44 1
    37   17   18 1
    38   17   45 1
    39   17   46 1
    40   18   22 1
    41   18   19 1
    42   18   23 1
    43   19   20 1
    44   19   47 1
    45   19   48 1
    46   20   21 1
    47   20   49 1
    48   20   50 1
    49   21   22 1
    50   21   51 1
    51   21   52 1
    52   22   53 1
    53   22   54 1
    54   23   24 1
    55   23   25 1
    56   23   61 1
    57   24   55 1
    58   24   56 1
    59   24   57 1
    60   25   58 1
    61   25   59 1
    62   25   60 1
@<TRIPOS>MOLECULE
ZINC64308887
   51    52     0     0     0
SMALL
USER_CHARGES

@<TRIPOS>ATOM
      1 C1          0.0411    0.1710    0.1018 C.3       1 <0>        -0.1549
      2 C2          0.1215   -1.3278   -0.1948 C.3       1 <0>        -0.0602
      3 C3          0.8998   -2.0275    0.9212 C.3       1 <0>        -0.1550
      4 C4         -1.2917   -1.9088   -0.2728 C.3       1 <0>        -0.1487
      5 C5          0.8369   -1.5458   -1.5296 C.3       1 <0>        -0.1394
      6 C6          2.2501   -0.9648   -1.4517 C.3       1 <0>        -0.0184
      7 N1          2.9370   -1.1741   -2.7332 N.4       1 <0>        -0.3840
      8 C7          2.2505   -0.4129   -3.7845 C.3       1 <0>        -0.0257
      9 C8          2.8953   -0.7202   -5.1401 C.3       1 <0>         0.0902
     10 N2          4.3386   -0.4532   -5.0412 N.am      1 <0>        -0.6267
     11 C9          5.0780   -1.0473   -3.9168 C.3       1 <0>         0.0733
     12 C10         4.3302   -0.7246   -2.6189 C.3       1 <0>        -0.0211
     13 C11         4.9657    0.3137   -5.9550 C.2       1 <0>         0.5834
     14 O1          4.3536    0.7366   -6.9169 O.2       1 <0>        -0.4874
     15 C12         6.3938    0.6397   -5.7886 C.ar      1 <0>        -0.2010
     16 C13         7.3282   -0.3792   -5.5834 C.ar      1 <0>        -0.0351
     17 C14         8.6628   -0.0672   -5.4284 C.ar      1 <0>         0.0528
     18 C15         9.0829    1.2547   -5.4747 C.ar      1 <0>        -0.0142
     19 C16         8.1711    2.2703   -5.6761 C.ar      1 <0>        -0.1002
     20 C17         6.8238    1.9743   -5.8409 C.ar      1 <0>         0.3212
     21 N3          5.9050    2.9960   -6.0505 N.pl3     1 <0>        -0.8272
     22 N4          8.6298    3.6769   -5.7228 N.pl3     1 <0>         0.0451
     23 O2          9.8124    3.9279   -5.7071 O.2       1 <0>        -0.1313
     24 O3          7.8220    4.5747   -5.7766 O.3       1 <0>        -0.1696
     25 F1          9.5652   -1.0530   -5.2301 F         1 <0>        -0.1159
     26 H1          1.0479    0.5850    0.1573 H         1 <0>         0.0537
     27 H2         -0.5134    0.6695   -0.6933 H         1 <0>         0.0618
     28 H3         -0.4686    0.3264    1.0527 H         1 <0>         0.0701
     29 H4          0.3901   -1.8722    1.8721 H         1 <0>         0.0699
     30 H5          0.9571   -3.0953    0.7098 H         1 <0>         0.0626
     31 H6          1.9066   -1.6136    0.9767 H         1 <0>         0.0542
     32 H7         -1.8462   -1.4103   -1.0679 H         1 <0>         0.0606
     33 H8         -1.2344   -2.9766   -0.4841 H         1 <0>         0.0611
     34 H9         -1.8014   -1.7535    0.6781 H         1 <0>         0.0682
     35 H10         0.8942   -2.6136   -1.7409 H         1 <0>         0.0895
     36 H11         0.2824   -1.0473   -2.3247 H         1 <0>         0.0884
     37 H12         2.1928    0.1030   -1.2403 H         1 <0>         0.1333
     38 H13         2.8046   -1.4633   -0.6566 H         1 <0>         0.1365
     39 H14         1.1982   -0.6960   -3.8100 H         1 <0>         0.1486
     40 H15         2.3351    0.6535   -3.5752 H         1 <0>         0.1346
     41 H16         2.7331   -1.7678   -5.3937 H         1 <0>         0.1009
     42 H17         2.4566   -0.0823   -5.9074 H         1 <0>         0.1392
     43 H18         5.1363   -2.1280   -4.0469 H         1 <0>         0.1057
     44 H19         6.0824   -0.6258   -3.8753 H         1 <0>         0.1330
     45 H20         4.3518    0.3512   -2.4449 H         1 <0>         0.1348
     46 H21         4.8104   -1.2374   -1.7856 H         1 <0>         0.1479
     47 H22         7.0057   -1.4092   -5.5460 H         1 <0>         0.1601
     48 H23        10.1298    1.4898   -5.3519 H         1 <0>         0.1767
     49 H24         4.9743    2.8685   -5.8088 H         1 <0>         0.4085
     50 H25         6.1945    3.8366   -6.4385 H         1 <0>         0.4263
     51 H26         2.9196   -2.1557   -2.9663 H         1 <0>         0.4240
@<TRIPOS>BOND
     1    1    2 1
     2    1   26 1
     3    1   27 1
     4    1   28 1
     5    2    3 1
     6    2    4 1
     7    2    5 1
     8    3   29 1
     9    3   30 1
    10    3   31 1
    11    4   32 1
    12    4   33 1
    13    4   34 1
    14    5    6 1
    15    5   35 1
    16    5   36 1
    17    6    7 1
    18    6   37 1
    19    6   38 1
    20    7   12 1
    21    7    8 1
    22    7   51 1
    23    8    9 1
    24    8   39 1
    25    8   40 1
    26    9   10 1
    27    9   41 1
    28    9   42 1
    29   10   11 1
    30   10   13 am
    31   11   12 1
    32   11   43 1
    33   11   44 1
    34   12   45 1
    35   12   46 1
    36   13   14 2
    37   13   15 1
    38   15   20 ar
    39   15   16 ar
    40   16   17 ar
    41   16   47 1
    42   17   18 ar
    43   17   25 1
    44   18   19 ar
    45   18   48 1
    46   19   20 ar
    47   19   22 1
    48   20   21 1
    49   21   49 1
    50   21   50 1
    51   22   23 2
    52   22   24 1
@<TRIPOS>MOLECULE
ZINC66598999
   60    61     0     0     0
SMALL
USER_CHARGES

@<TRIPOS>ATOM
      1 C1          3.0039   -8.4105   -1.5745 C.3       1 <0>        -0.1581
      2 C2          2.3470   -7.9216   -0.2821 C.3       1 <0>        -0.1212
      3 C3          2.5225   -6.4065   -0.1622 C.3       1 <0>        -0.1459
      4 C4          1.8656   -5.9176    1.1302 C.3       1 <0>        -0.0206
      5 N1          2.0341   -4.4629    1.2453 N.4       1 <0>        -0.3814
      6 C5          3.4596   -4.1475    1.3974 C.3       1 <0>        -0.0117
      7 C6          3.6487   -2.6295    1.4364 C.3       1 <0>        -0.1466
      8 C7          2.8676   -2.0535    2.6210 C.3       1 <0>        -0.1382
      9 C8          1.3947   -2.4517    2.4907 C.3       1 <0>        -0.1398
     10 C9          1.2891   -3.9763    2.4126 C.3       1 <0>         0.0189
     11 H1          1.7065   -4.4158    3.3186 H         1 <0>         0.1546
     12 C10        -0.1812   -4.3791    2.2826 C.3       1 <0>         0.1150
     13 N2         -0.7069   -3.9014    1.0013 N.am      1 <0>        -0.7628
     14 C11        -2.0132   -4.0572    0.7086 C.2       1 <0>         0.7065
     15 O1         -2.7555   -4.5943    1.5080 O.2       1 <0>        -0.5601
     16 N3         -2.4969   -3.6177   -0.4701 N.am      1 <0>        -0.7321
     17 C12        -3.9168   -3.7871   -0.7882 C.3       1 <0>         0.1484
     18 H2         -4.2747   -4.7261   -0.3660 H         1 <0>         0.0987
     19 C13        -4.1011   -3.8069   -2.3074 C.3       1 <0>        -0.1278
     20 C14        -5.5800   -4.0167   -2.6408 C.3       1 <0>        -0.1332
     21 C15        -6.3980   -2.8542   -2.0696 C.3       1 <0>         0.1066
     22 N4         -6.1141   -2.7372   -0.6328 N.am      1 <0>        -0.5942
     23 C16        -4.7161   -2.6224   -0.1954 C.3       1 <0>         0.1181
     24 C17        -7.1171   -2.7352    0.2674 C.2       1 <0>         0.6498
     25 O2         -6.8693   -2.6378    1.4530 O.2       1 <0>        -0.5641
     26 O3         -8.3938   -2.8410   -0.1470 O.3       1 <0>        -0.3628
     27 C18        -9.4060   -2.8320    0.8616 C.3       1 <0>         0.0522
     28 H3          4.0665   -8.1682   -1.5561 H         1 <0>         0.0591
     29 H4          2.8788   -9.4899   -1.6599 H         1 <0>         0.0673
     30 H5          2.5345   -7.9216   -2.4281 H         1 <0>         0.0587
     31 H6          1.2844   -8.1639   -0.3004 H         1 <0>         0.0731
     32 H7          2.8164   -8.4105    0.5716 H         1 <0>         0.0739
     33 H8          3.5851   -6.1641   -0.1439 H         1 <0>         0.0871
     34 H9          2.0531   -5.9176   -1.0159 H         1 <0>         0.0843
     35 H10         0.8030   -6.1599    1.1119 H         1 <0>         0.1345
     36 H11         2.3350   -6.4064    1.9839 H         1 <0>         0.1335
     37 H12         3.8307   -4.5833    2.3250 H         1 <0>         0.1317
     38 H13         4.0146   -4.5608    0.5552 H         1 <0>         0.1336
     39 H14         4.7075   -2.3974    1.5512 H         1 <0>         0.1145
     40 H15         3.2781   -2.1926    0.5091 H         1 <0>         0.0866
     41 H16         3.2717   -2.4512    3.5520 H         1 <0>         0.0847
     42 H17         2.9529   -0.9669    2.6201 H         1 <0>         0.0970
     43 H18         0.8423   -2.0926    3.3591 H         1 <0>         0.1170
     44 H19         0.9773   -2.0112    1.5853 H         1 <0>         0.0864
     45 H20        -0.2659   -5.4648    2.3279 H         1 <0>         0.0946
     46 H21        -0.7529   -3.9357    3.0979 H         1 <0>         0.1169
     47 H22        -0.1148   -3.4729    0.3636 H         1 <0>         0.3865
     48 H23        -1.9047   -3.1893   -1.1078 H         1 <0>         0.3987
     49 H24        -3.7655   -2.8583   -2.7263 H         1 <0>         0.0746
     50 H25        -3.5138   -4.6201   -2.7338 H         1 <0>         0.0766
     51 H26        -5.7072   -4.0541   -3.7227 H         1 <0>         0.0906
     52 H27        -5.9227   -4.9533   -2.2011 H         1 <0>         0.0743
     53 H28        -6.1192   -1.9288   -2.5737 H         1 <0>         0.0757
     54 H29        -7.4604   -3.0476   -2.2176 H         1 <0>         0.1000
     55 H30        -4.6687   -2.6632    0.8929 H         1 <0>         0.1022
     56 H31        -4.3003   -1.6779   -0.5462 H         1 <0>         0.0731
     57 H32        -9.2486   -3.6690    1.5419 H         1 <0>         0.0624
     58 H33        -9.3556   -1.8965    1.4187 H         1 <0>         0.0625
     59 H34       -10.3861   -2.9237    0.3935 H         1 <0>         0.1073
     60 H35         1.6802   -4.0173    0.4121 H         1 <0>         0.4128
@<TRIPOS>BOND
     1    1    2 1
     2    1   28 1
     3    1   29 1
     4    1   30 1
     5    2    3 1
     6    2   31 1
     7    2   32 1
     8    3    4 1
     9    3   33 1
    10    3   34 1
    11    4    5 1
    12    4   35 1
    13    4   36 1
    14    5   10 1
    15    5    6 1
    16    5   60 1
    17    6    7 1
    18    6   37 1
    19    6   38 1
    20    7    8 1
    21    7   39 1
    22    7   40 1
    23    8    9 1
    24    8   41 1
    25    8   42 1
    26    9   10 1
    27    9   43 1
    28    9   44 1
    29   10   11 1
    30   10   12 1
    31   12   13 1
    32   12   45 1
    33   12   46 1
    34   13   14 am
    35   13   47 1
    36   14   15 2
    37   14   16 am
    38   16   17 1
    39   16   48 1
    40   17   18 1
    41   17   23 1
    42   17   19 1
    43   19   20 1
    44   19   49 1
    45   19   50 1
    46   20   21 1
    47   20   51 1
    48   20   52 1
    49   21   22 1
    50   21   53 1
    51   21   54 1
    52   22   23 1
    53   22   24 am
    54   23   55 1
    55   23   56 1
    56   24   25 2
    57   24   26 1
    58   26   27 1
    59   27   57 1
    60   27   58 1
    61   27   59 1
@<TRIPOS>MOLECULE
ZINC67445927
   49    52     0     0     0
SMALL
USER_CHARGES

@<TRIPOS>ATOM
      1 C1          0.1221    1.1541    0.7626 C.ar      1 <0>        -0.1060
      2 C2          1.3093    1.8617    0.7616 C.ar      1 <0>        -0.0801
      3 C3          2.3828    1.4172    0.0075 C.ar      1 <0>         0.0287
      4 C4          2.2656    0.2546   -0.7513 C.ar      1 <0>         0.0550
      5 C5          1.0760   -0.4536   -0.7496 C.ar      1 <0>        -0.1243
      6 C6          0.0024   -0.0045    0.0077 C.ar      1 <0>         0.1418
      7 N1         -1.2015   -0.7210    0.0102 N.am      1 <0>        -0.6628
      8 C7         -2.3744   -0.0675    0.1271 C.2       1 <0>         0.5165
      9 O1         -2.3949    1.1452    0.1340 O.2       1 <0>        -0.5011
     10 C8         -3.6605   -0.8436    0.2493 C.3       1 <0>        -0.1202
     11 C9         -3.8540   -1.7134   -0.9961 C.3       1 <0>        -0.1419
     12 C10        -5.1988   -2.4374   -0.9019 C.3       1 <0>        -0.0033
     13 N2         -6.2839   -1.4527   -0.8176 N.4       1 <0>        -0.3718
     14 C11        -6.1450   -0.6624    0.4115 C.3       1 <0>        -0.0176
     15 C12        -4.8367    0.1299    0.3679 C.3       1 <0>        -0.1241
     16 C13        -7.5766   -2.1504   -0.8059 C.3       1 <0>        -0.0306
     17 C14        -8.6935   -1.1394   -0.8433 C.2       1 <0>         0.5036
     18 O2         -8.4379    0.0457   -0.8764 O.2       1 <0>        -0.5233
     19 N3         -9.9765   -1.5523   -0.8399 N.am      1 <0>        -0.6746
     20 C15       -11.0623   -0.5695   -0.8762 C.3       1 <0>         0.0602
     21 C16       -12.2518   -0.7960    0.0590 C.3       1 <0>        -0.1825
     22 C17       -12.4077   -1.0238   -1.4459 C.3       1 <0>        -0.1787
     23 O3          3.4484    0.0336   -1.3961 O.3       1 <0>        -0.3055
     24 C18         4.1531    1.2882   -1.3482 C.3       1 <0>         0.2130
     25 O4          3.6398    1.9239   -0.1626 O.3       1 <0>        -0.3041
     26 H1         -0.7119    1.5005    1.3550 H         1 <0>         0.1479
     27 H2          1.4001    2.7631    1.3495 H         1 <0>         0.1441
     28 H3          0.9830   -1.3548   -1.3374 H         1 <0>         0.1396
     29 H4         -1.1909   -1.6875   -0.0723 H         1 <0>         0.4125
     30 H5         -3.6210   -1.4772    1.1354 H         1 <0>         0.1218
     31 H6         -3.8413   -1.0835   -1.8856 H         1 <0>         0.0992
     32 H7         -3.0495   -2.4463   -1.0568 H         1 <0>         0.1200
     33 H8         -5.3397   -3.0578   -1.7870 H         1 <0>         0.1387
     34 H9         -5.2103   -3.0672   -0.0124 H         1 <0>         0.1360
     35 H10        -6.9845    0.0276    0.4961 H         1 <0>         0.1527
     36 H11        -6.1364   -1.3301    1.2731 H         1 <0>         0.1285
     37 H12        -4.7346    0.7146    1.2821 H         1 <0>         0.1220
     38 H13        -4.8444    0.7981   -0.4933 H         1 <0>         0.1006
     39 H14        -7.6462   -2.8011   -1.6776 H         1 <0>         0.1621
     40 H15        -7.6583   -2.7488    0.1015 H         1 <0>         0.1610
     41 H16       -10.1810   -2.5001   -0.8134 H         1 <0>         0.4116
     42 H17       -10.7583    0.4603   -1.0639 H         1 <0>         0.1461
     43 H18       -12.2265   -1.6763    0.7014 H         1 <0>         0.1023
     44 H19       -12.7305    0.0849    0.4869 H         1 <0>         0.1117
     45 H20       -12.9889   -0.2929   -2.0080 H         1 <0>         0.1131
     46 H21       -12.4849   -2.0540   -1.7936 H         1 <0>         0.1032
     47 H22         5.2265    1.1213   -1.2591 H         1 <0>         0.1379
     48 H23         3.9296    1.8870   -2.2311 H         1 <0>         0.0895
     49 H24        -6.2426   -0.8388   -1.6173 H         1 <0>         0.4315
@<TRIPOS>BOND
     1    1    6 ar
     2    1    2 ar
     3    1   26 1
     4    2    3 ar
     5    2   27 1
     6    3   25 1
     7    3    4 ar
     8    4    5 ar
     9    4   23 1
    10    5    6 ar
    11    5   28 1
    12    6    7 1
    13    7    8 am
    14    7   29 1
    15    8    9 2
    16    8   10 1
    17   10   15 1
    18   10   11 1
    19   10   30 1
    20   11   12 1
    21   11   31 1
    22   11   32 1
    23   12   13 1
    24   12   33 1
    25   12   34 1
    26   13   14 1
    27   13   16 1
    28   13   49 1
    29   14   15 1
    30   14   35 1
    31   14   36 1
    32   15   37 1
    33   15   38 1
    34   16   17 1
    35   16   39 1
    36   16   40 1
    37   17   18 2
    38   17   19 am
    39   19   20 1
    40   19   41 1
    41   20   22 1
    42   20   21 1
    43   20   42 1
    44   21   22 1
    45   21   43 1
    46   21   44 1
    47   22   45 1
    48   22   46 1
    49   23   24 1
    50   24   25 1
    51   24   47 1
    52   24   48 1
@<TRIPOS>MOLECULE
ZINC39470498
   46    48     0     0     0
SMALL
USER_CHARGES

@<TRIPOS>ATOM
      1 C1         -0.0225    1.8097    0.0120 C.3       1 <0>        -0.1348
      2 S1          0.0021   -0.0041    0.0020 S.3       1 <0>         0.0149
      3 C2          0.8484   -0.4107   -1.4889 C.2       1 <0>         0.3823
      4 N1          1.0396   -1.7191   -1.8147 N.am      1 <0>        -0.6130
      5 C3          1.6869   -2.0379   -2.9559 C.2       1 <0>         0.5310
      6 O1          1.8667   -3.2048   -3.2635 O.2       1 <0>        -0.5174
      7 C4          2.1495   -0.9996   -3.7832 C.2       1 <0>        -0.2711
      8 C5          1.9290    0.2935   -3.4054 C.2       1 <0>         0.1951
      9 N2          1.2814    0.5574   -2.2735 N.2       1 <0>        -0.5414
     10 C6          2.4155    1.4243   -4.2747 C.3       1 <0>        -0.0593
     11 S2          1.0084    2.1633   -5.1491 S.3       1 <0>        -0.0521
     12 C7          1.7533    3.4894   -6.1376 C.3       1 <0>         0.1724
     13 H1          0.9815    4.0136   -6.7011 H         1 <0>         0.1811
     14 N3          2.4704    4.4382   -5.2556 N.3       1 <0>        -0.4518
     15 N4          3.8693    3.9832   -5.2862 N.3       1 <0>        -0.4652
     16 C8          4.0531    3.5582   -6.6987 C.3       1 <0>         0.1921
     17 H2          4.2472    4.4219   -7.3347 H         1 <0>         0.1443
     18 N5          2.7612    2.9279   -7.0608 N.4       1 <0>        -0.4090
     19 C9          2.4110    3.2554   -8.4494 C.3       1 <0>         0.0245
     20 C10         1.1379    2.5433   -8.8277 C.2       1 <0>        -0.2357
     21 C11         0.1190    3.2245   -9.2900 C.2       1 <0>        -0.0994
     22 C12         5.1782    2.5615   -6.8073 C.ar      1 <0>        -0.0815
     23 C13         5.1584    1.5718   -7.7781 C.ar      1 <0>        -0.1839
     24 C14         6.2079    0.6752   -7.8474 C.ar      1 <0>         0.1284
     25 N6          7.2186    0.7535   -7.0041 N.ar      1 <0>        -0.4569
     26 C15         7.2709    1.6813   -6.0685 C.ar      1 <0>         0.1260
     27 C16         6.2606    2.6160   -5.9425 C.ar      1 <0>        -0.1276
     28 H3          1.0001    2.1870    0.0043 H         1 <0>         0.0990
     29 H4         -0.5497    2.1708   -0.8711 H         1 <0>         0.0996
     30 H5         -0.5327    2.1613    0.9088 H         1 <0>         0.1219
     31 H6          2.6712   -1.2214   -4.7025 H         1 <0>         0.1570
     32 H7          2.8946    2.1805   -3.6528 H         1 <0>         0.1390
     33 H8          3.1338    1.0420   -5.0000 H         1 <0>         0.0980
     34 H9          2.3900    5.3833   -5.5998 H         1 <0>         0.3528
     35 H10         4.4994    4.7350   -5.0499 H         1 <0>         0.3932
     36 H11         2.2671    4.3318   -8.5436 H         1 <0>         0.1326
     37 H12         3.2160    2.9372   -9.1118 H         1 <0>         0.1431
     38 H13         1.0656    1.4714   -8.7176 H         1 <0>         0.1423
     39 H14         0.1913    4.2964   -9.4001 H         1 <0>         0.1110
     40 H15        -0.7934    2.7142   -9.5612 H         1 <0>         0.1294
     41 H16         4.3330    1.5021   -8.4712 H         1 <0>         0.1348
     42 H17         6.1999   -0.0986   -8.6007 H         1 <0>         0.1724
     43 H18         8.1149    1.7137   -5.3955 H         1 <0>         0.1738
     44 H19         6.3115    3.3765   -5.1774 H         1 <0>         0.1490
     45 H20         2.8189    1.9274   -6.9437 H         1 <0>         0.4321
     46 H21         0.7122   -2.4195   -1.2289 H         1 <0>         0.4275
@<TRIPOS>BOND
     1    1    2 1
     2    1   28 1
     3    1   29 1
     4    1   30 1
     5    2    3 1
     6    3    9 2
     7    3    4 1
     8    4    5 am
     9    4   46 1
    10    5    6 2
    11    5    7 1
    12    7    8 2
    13    7   31 1
    14    8    9 1
    15    8   10 1
    16   10   11 1
    17   10   32 1
    18   10   33 1
    19   11   12 1
    20   12   13 1
    21   12   18 1
    22   12   14 1
    23   14   15 1
    24   14   34 1
    25   15   16 1
    26   15   35 1
    27   16   17 1
    28   16   18 1
    29   16   22 1
    30   18   19 1
    31   18   45 1
    32   19   20 1
    33   19   36 1
    34   19   37 1
    35   20   21 2
    36   20   38 1
    37   21   39 1
    38   21   40 1
    39   22   27 ar
    40   22   23 ar
    41   23   24 ar
    42   23   41 1
    43   24   25 ar
    44   24   42 1
    45   25   26 ar
    46   26   27 ar
    47   26   43 1
    48   27   44 1
@<TRIPOS>MOLECULE
ZINC51003420
   52    53     0     0     0
SMALL
USER_CHARGES

@<TRIPOS>ATOM
      1 C1         -0.0187    1.5258    0.0104 C.3       1 <0>        -0.1536
      2 C2          0.0021   -0.0041    0.0020 C.3       1 <0>        -0.1367
      3 C3         -1.4333   -0.5336    0.0129 C.3       1 <0>         0.1139
      4 N1         -1.4134   -1.9985    0.0048 N.am      1 <0>        -0.7181
      5 C4         -2.5713   -2.6882    0.0122 C.2       1 <0>         0.5224
      6 O1         -3.6297   -2.0961    0.0255 O.2       1 <0>        -0.5300
      7 C5         -2.5509   -4.1950    0.0039 C.3       1 <0>        -0.1307
      8 H1         -2.0408   -4.5472   -0.8927 H         1 <0>         0.1230
      9 C6         -1.8123   -4.7033    1.2454 C.3       1 <0>        -0.1316
     10 C7         -1.8651   -6.2336    1.2679 C.3       1 <0>        -0.1377
     11 C8         -3.3257   -6.6886    1.2353 C.3       1 <0>        -0.0237
     12 N2         -3.9691   -6.1933    0.0125 N.4       1 <0>        -0.3678
     13 C9         -3.9861   -4.7256    0.0170 C.3       1 <0>         0.0104
     14 C10        -5.3474   -6.6973   -0.0525 C.3       1 <0>        -0.0189
     15 C11        -5.3276   -8.1977   -0.1913 C.2       1 <0>         0.4999
     16 O2         -4.2695   -8.7891   -0.2321 O.2       1 <0>        -0.5293
     17 N3         -6.4858   -8.8825   -0.2701 N.am      1 <0>        -0.4896
     18 N4         -6.4674  -10.2775   -0.3991 N.am      1 <0>        -0.5234
     19 C12        -7.6255  -10.9623   -0.4779 C.2       1 <0>         0.5717
     20 O3         -8.6860  -10.3696   -0.4371 O.2       1 <0>        -0.5208
     21 C13        -7.6061  -12.4343   -0.6141 C.ar      1 <0>        -0.1415
     22 C14        -6.3902  -13.1184   -0.6555 C.ar      1 <0>        -0.0848
     23 C15        -6.3791  -14.4921   -0.7822 C.ar      1 <0>        -0.1239
     24 C16        -7.5698  -15.1915   -0.8686 C.ar      1 <0>        -0.0786
     25 C17        -8.7785  -14.5194   -0.8287 C.ar      1 <0>        -0.1225
     26 C18        -8.8037  -13.1465   -0.6960 C.ar      1 <0>        -0.0495
     27 H2          1.0039    1.9031    0.0027 H         1 <0>         0.0655
     28 H3         -0.5459    1.8868   -0.8726 H         1 <0>         0.0603
     29 H4         -0.5289    1.8773    0.9072 H         1 <0>         0.0602
     30 H5          0.5123   -0.3556   -0.8948 H         1 <0>         0.0707
     31 H6          0.5293   -0.3651    0.8851 H         1 <0>         0.0706
     32 H7         -1.9435   -0.1821    0.9097 H         1 <0>         0.0749
     33 H8         -1.9605   -0.1726   -0.8702 H         1 <0>         0.0749
     34 H9         -0.5669   -2.4720   -0.0058 H         1 <0>         0.4047
     35 H10        -0.7735   -4.3749    1.2114 H         1 <0>         0.1000
     36 H11        -2.2914   -4.3088    2.1415 H         1 <0>         0.0906
     37 H12        -1.3413   -6.6287    0.3976 H         1 <0>         0.0933
     38 H13        -1.3897   -6.6009    2.1774 H         1 <0>         0.1192
     39 H14        -3.3670   -7.7777    1.2514 H         1 <0>         0.1495
     40 H15        -3.8486   -6.2932    2.1061 H         1 <0>         0.1294
     41 H16        -4.4956   -4.3720    0.9134 H         1 <0>         0.1426
     42 H17        -4.5142   -4.3654   -0.8659 H         1 <0>         0.1432
     43 H18        -5.8777   -6.4237    0.8597 H         1 <0>         0.1682
     44 H19        -5.8542   -6.2595   -0.9125 H         1 <0>         0.1695
     45 H20        -7.3320   -8.4096   -0.2375 H         1 <0>         0.4430
     46 H21        -5.6211  -10.7504   -0.4317 H         1 <0>         0.4371
     47 H22        -5.4601  -12.5735   -0.5889 H         1 <0>         0.1242
     48 H23        -5.4390  -15.0227   -0.8144 H         1 <0>         0.1354
     49 H24        -7.5556  -16.2669   -0.9681 H         1 <0>         0.1353
     50 H25        -9.7043  -15.0713   -0.8970 H         1 <0>         0.1383
     51 H26        -9.7479  -12.6235   -0.6600 H         1 <0>         0.1408
     52 H27        -3.4555   -6.5196   -0.7924 H         1 <0>         0.4300
@<TRIPOS>BOND
     1    1    2 1
     2    1   27 1
     3    1   28 1
     4    1   29 1
     5    2    3 1
     6    2   30 1
     7    2   31 1
     8    3    4 1
     9    3   32 1
    10    3   33 1
    11    4    5 am
    12    4   34 1
    13    5    6 2
    14    5    7 1
    15    7    8 1
    16    7   13 1
    17    7    9 1
    18    9   10 1
    19    9   35 1
    20    9   36 1
    21   10   11 1
    22   10   37 1
    23   10   38 1
    24   11   12 1
    25   11   39 1
    26   11   40 1
    27   12   13 1
    28   12   14 1
    29   12   52 1
    30   13   41 1
    31   13   42 1
    32   14   15 1
    33   14   43 1
    34   14   44 1
    35   15   16 2
    36   15   17 am
    37   17   18 1
    38   17   45 1
    39   18   19 am
    40   18   46 1
    41   19   20 2
    42   19   21 1
    43   21   26 ar
    44   21   22 ar
    45   22   23 ar
    46   22   47 1
    47   23   24 ar
    48   23   48 1
    49   24   25 ar
    50   24   49 1
    51   25   26 ar
    52   25   50 1
    53   26   51 1
@<TRIPOS>MOLECULE
ZINC62350325
   49    51     0     0     0
SMALL
USER_CHARGES

@<TRIPOS>ATOM
      1 C1          0.6514    1.4340    1.0979 C.3       1 <0>        -0.1545
      2 C2          0.5821   -0.0416    1.4964 C.3       1 <0>        -0.1039
      3 C3          0.9707   -0.9141    0.2994 C.3       1 <0>        -0.1438
      4 C4          0.8227   -2.3887    0.6805 C.3       1 <0>        -0.0103
      5 N1         -0.5693   -2.6632    1.0566 N.4       1 <0>        -0.3832
      6 C5         -0.9266   -1.8833    2.2476 C.3       1 <0>        -0.0201
      7 C6         -0.8459   -0.3893    1.9268 C.3       1 <0>        -0.1428
      8 C7         -0.7234   -4.0951    1.3464 C.3       1 <0>         0.0186
      9 H1         -0.3701   -4.6780    0.4958 H         1 <0>         0.1505
     10 C8          0.0961   -4.4554    2.5872 C.3       1 <0>        -0.1845
     11 C9         -2.1992   -4.4079    1.6013 C.3       1 <0>         0.0893
     12 N2         -2.9958   -3.9765    0.4500 N.pl3     1 <0>        -1.1342
     13 S1         -4.5406   -4.5401    0.2541 S.o2      1 <0>         2.6990
     14 O1         -5.0504   -3.9270   -0.9221 O.2       1 <0>        -0.9372
     15 O2         -4.4815   -5.9509    0.4134 O.2       1 <0>        -0.9341
     16 C10        -5.4955   -3.9209    1.5992 C.ar      1 <0>        -0.6808
     17 C11        -5.5902   -4.6517    2.7712 C.ar      1 <0>        -0.0154
     18 C12        -6.3362   -4.1748    3.8310 C.ar      1 <0>        -0.1207
     19 C13        -6.9933   -2.9587    3.7206 C.ar      1 <0>         0.1553
     20 C14        -6.8978   -2.2217    2.5385 C.ar      1 <0>         0.0728
     21 C15        -6.1417   -2.7061    1.4819 C.ar      1 <0>        -0.0018
     22 N3         -7.6506   -1.0645    2.7237 N.am      1 <0>        -0.6400
     23 H2         -7.7731   -0.3566    2.0720 H         1 <0>         0.4422
     24 C16        -8.1796   -1.0962    3.9614 C.2       1 <0>         0.6856
     25 O3         -8.8920   -0.2342    4.4413 O.2       1 <0>        -0.5299
     26 N4         -7.8011   -2.2265    4.5874 N.am      1 <0>        -0.6391
     27 H3         -8.0488   -2.4866    5.4884 H         1 <0>         0.4438
     28 H4          0.3678    2.0537    1.9485 H         1 <0>         0.0673
     29 H5          1.6681    1.6803    0.7918 H         1 <0>         0.0680
     30 H6         -0.0324    1.6191    0.2695 H         1 <0>         0.0621
     31 H7          1.2676   -0.2285    2.3230 H         1 <0>         0.0892
     32 H8          0.3168   -0.6885   -0.5430 H         1 <0>         0.0886
     33 H9          2.0053   -0.7119    0.0222 H         1 <0>         0.1142
     34 H10         1.0988   -3.0127   -0.1694 H         1 <0>         0.1326
     35 H11         1.4772   -2.6132    1.5228 H         1 <0>         0.1331
     36 H12        -1.9419   -2.1342    2.5546 H         1 <0>         0.1316
     37 H13        -0.2348   -2.1186    3.0565 H         1 <0>         0.1359
     38 H14        -1.1097    0.1880    2.8128 H         1 <0>         0.1126
     39 H15        -1.5375   -0.1528    1.1182 H         1 <0>         0.0880
     40 H16        -0.2572   -3.8725    3.4378 H         1 <0>         0.0869
     41 H17        -0.0182   -5.5178    2.8022 H         1 <0>         0.1123
     42 H18         1.1475   -4.2325    2.4056 H         1 <0>         0.0893
     43 H19        -2.3232   -5.4810    1.7474 H         1 <0>         0.1317
     44 H20        -2.5339   -3.8787    2.4935 H         1 <0>         0.0963
     45 H21        -2.6183   -3.3608   -0.1976 H         1 <0>         0.4104
     46 H22        -5.0787   -5.5990    2.8570 H         1 <0>         0.1534
     47 H23        -6.4081   -4.7478    4.7436 H         1 <0>         0.1483
     48 H24        -6.0620   -2.1367    0.5677 H         1 <0>         0.1510
     49 H25        -1.1791   -2.4090    0.2940 H         1 <0>         0.4163
@<TRIPOS>BOND
     1    1    2 1
     2    1   28 1
     3    1   29 1
     4    1   30 1
     5    2    7 1
     6    2    3 1
     7    2   31 1
     8    3    4 1
     9    3   32 1
    10    3   33 1
    11    4    5 1
    12    4   34 1
    13    4   35 1
    14    5    6 1
    15    5    8 1
    16    5   49 1
    17    6    7 1
    18    6   36 1
    19    6   37 1
    20    7   38 1
    21    7   39 1
    22    8    9 1
    23    8   10 1
    24    8   11 1
    25   10   40 1
    26   10   41 1
    27   10   42 1
    28   11   12 1
    29   11   43 1
    30   11   44 1
    31   12   13 1
    32   12   45 1
    33   13   14 2
    34   13   15 2
    35   13   16 1
    36   16   21 ar
    37   16   17 ar
    38   17   18 ar
    39   17   46 1
    40   18   19 ar
    41   18   47 1
    42   19   26 1
    43   19   20 ar
    44   20   21 ar
    45   20   22 1
    46   21   48 1
    47   22   23 1
    48   22   24 am
    49   24   25 2
    50   24   26 am
    51   26   27 1
@<TRIPOS>MOLECULE
ZINC66449404
   53    56     0     0     0
SMALL
USER_CHARGES

@<TRIPOS>ATOM
      1 C1         -0.0168    1.3843    0.0097 C.ar      1 <0>        -0.0708
      2 C2          1.1702    2.0901    0.0021 C.ar      1 <0>        -0.1366
      3 C3          2.3788    1.4140   -0.0135 C.ar      1 <0>         0.1170
      4 C4          2.3996    0.0293   -0.0216 C.ar      1 <0>        -0.1314
      5 C5          1.2148   -0.6801   -0.0137 C.ar      1 <0>        -0.0814
      6 C6          0.0021   -0.0041    0.0020 C.ar      1 <0>         0.1067
      7 N1         -1.2015   -0.7222    0.0101 N.pl3     1 <0>        -0.2065
      8 C7         -1.4078   -1.9052   -0.6293 C.2       1 <0>        -0.0064
      9 C8         -2.6841   -2.2705   -0.3817 C.2       1 <0>        -0.1486
     10 C9         -3.2255   -1.2503    0.4343 C.2       1 <0>        -0.0003
     11 N2         -2.2694   -0.3622    0.6270 N.2       1 <0>        -0.2522
     12 C10        -4.5989   -1.1931    0.9735 C.2       1 <0>         0.6199
     13 O1         -5.3875   -2.0842    0.7241 O.2       1 <0>        -0.5088
     14 N3         -4.9784   -0.1530    1.7420 N.am      1 <0>        -0.7207
     15 C11        -6.3410   -0.0962    2.2770 C.3       1 <0>         0.1329
     16 H1         -7.0347   -0.5223    1.5521 H         1 <0>         0.1135
     17 C12        -6.4116   -0.8938    3.5823 C.3       1 <0>        -0.1521
     18 C13        -7.8183   -0.7634    4.1734 C.3       1 <0>        -0.1378
     19 C14        -8.1434    0.7174    4.3804 C.3       1 <0>        -0.0217
     20 N4         -8.0851    1.4195    3.0927 N.4       1 <0>        -0.3653
     21 C15        -6.7213    1.3600    2.5532 C.3       1 <0>        -0.0176
     22 C16        -8.4736    2.8233    3.2840 C.3       1 <0>        -0.0326
     23 C17        -9.9172    2.8912    3.7109 C.2       1 <0>         0.5083
     24 O2        -10.5593    1.8708    3.8428 O.2       1 <0>        -0.5263
     25 N5        -10.4948    4.0860    3.9461 N.am      1 <0>        -0.8244
     26 C18        -3.0000   -3.5818   -1.0596 C.3       1 <0>        -0.0486
     27 C19        -1.8822   -3.7675   -2.1100 C.3       1 <0>        -0.1158
     28 C20        -0.7298   -2.9376   -1.5017 C.3       1 <0>        -0.0446
     29 F1          3.5389    2.1062   -0.0213 F         1 <0>        -0.1262
     30 H2         -0.9590    1.9119    0.0260 H         1 <0>         0.1448
     31 H3          1.1559    3.1700    0.0080 H         1 <0>         0.1511
     32 H4          3.3431   -0.4962   -0.0345 H         1 <0>         0.1536
     33 H5          1.2315   -1.7599   -0.0203 H         1 <0>         0.1448
     34 H6         -4.3492    0.5580    1.9409 H         1 <0>         0.4133
     35 H7         -6.1969   -1.9432    3.3803 H         1 <0>         0.1021
     36 H8         -5.6812   -0.5008    4.2896 H         1 <0>         0.0855
     37 H9         -8.5432   -1.2029    3.4881 H         1 <0>         0.0936
     38 H10        -7.8604   -1.2826    5.1309 H         1 <0>         0.1184
     39 H11        -9.1442    0.8138    4.8012 H         1 <0>         0.1501
     40 H12        -7.4182    1.1558    5.0659 H         1 <0>         0.1280
     41 H13        -6.0265    1.7854    3.2773 H         1 <0>         0.1384
     42 H14        -6.6721    1.9302    1.6255 H         1 <0>         0.1401
     43 H15        -7.8456    3.2724    4.0534 H         1 <0>         0.1624
     44 H16        -8.3456    3.3665    2.3477 H         1 <0>         0.1632
     45 H17        -9.9813    4.9022    3.8406 H         1 <0>         0.4141
     46 H18       -11.4241    4.1298    4.2209 H         1 <0>         0.4249
     47 H19        -2.9793   -4.3969   -0.3362 H         1 <0>         0.0852
     48 H20        -3.9736   -3.5314   -1.5471 H         1 <0>         0.0830
     49 H21        -1.6016   -4.8170   -2.1986 H         1 <0>         0.0914
     50 H22        -2.1850   -3.3640   -3.0763 H         1 <0>         0.0808
     51 H23        -0.1574   -2.4497   -2.2906 H         1 <0>         0.0845
     52 H24        -0.0808   -3.5742   -0.9003 H         1 <0>         0.0926
     53 H25        -8.7213    0.9821    2.4431 H         1 <0>         0.4325
@<TRIPOS>BOND
     1    1    6 ar
     2    1    2 ar
     3    1   30 1
     4    2    3 ar
     5    2   31 1
     6    3    4 ar
     7    3   29 1
     8    4    5 ar
     9    4   32 1
    10    5    6 ar
    11    5   33 1
    12    6    7 1
    13    7   11 1
    14    7    8 1
    15    8   28 1
    16    8    9 2
    17    9   10 1
    18    9   26 1
    19   10   11 2
    20   10   12 1
    21   12   13 2
    22   12   14 am
    23   14   15 1
    24   14   34 1
    25   15   16 1
    26   15   21 1
    27   15   17 1
    28   17   18 1
    29   17   35 1
    30   17   36 1
    31   18   19 1
    32   18   37 1
    33   18   38 1
    34   19   20 1
    35   19   39 1
    36   19   40 1
    37   20   21 1
    38   20   22 1
    39   20   53 1
    40   21   41 1
    41   21   42 1
    42   22   23 1
    43   22   43 1
    44   22   44 1
    45   23   24 2
    46   23   25 am
    47   25   45 1
    48   25   46 1
    49   26   27 1
    50   26   47 1
    51   26   48 1
    52   27   28 1
    53   27   49 1
    54   27   50 1
    55   28   51 1
    56   28   52 1
@<TRIPOS>MOLECULE
ZINC67391859
   55    57     0     0     0
SMALL
USER_CHARGES

@<TRIPOS>ATOM
      1 C1         -0.0187    1.5258    0.0104 C.3       1 <0>        -0.1629
      2 C2          0.0021   -0.0041    0.0020 C.3       1 <0>         0.2026
      3 H1         -1.0205   -0.3814    0.0098 H         1 <0>         0.1054
      4 C3          0.7074   -0.4901   -1.2379 C.ar      1 <0>        -0.1188
      5 C4          2.0891   -0.5108   -1.2839 C.ar      1 <0>        -0.0607
      6 C5          2.7360   -0.9565   -2.4211 C.ar      1 <0>        -0.1324
      7 C6          2.0015   -1.3821   -3.5123 C.ar      1 <0>        -0.0120
      8 C7          0.6203   -1.3622   -3.4660 C.ar      1 <0>        -0.6689
      9 C8         -0.0268   -0.9204   -2.3269 C.ar      1 <0>        -0.0080
     10 S1         -0.3158   -1.9041   -4.8569 S.o2      1 <0>         2.6933
     11 O1         -1.5860   -1.2741   -4.7620 O.2       1 <0>        -0.9490
     12 O2          0.5242   -1.7577   -5.9937 O.2       1 <0>        -0.9513
     13 N1         -0.5778   -3.5283   -4.6681 N.pl3     1 <0>        -1.1189
     14 C9         -1.3959   -4.0137   -3.5540 C.3       1 <0>         0.0822
     15 N2          0.7106   -0.4894    1.1889 N.am      1 <0>        -0.7339
     16 C10         0.0512   -0.6335    2.3554 C.2       1 <0>         0.7091
     17 O3         -1.1318   -0.3607    2.4228 O.2       1 <0>        -0.5683
     18 N3          0.7031   -1.0799    3.4473 N.am      1 <0>        -0.7511
     19 C11        -0.0137   -1.2366    4.7154 C.3       1 <0>         0.1504
     20 H2         -1.0426   -1.5482    4.5353 H         1 <0>         0.1396
     21 C12         0.0196    0.0852    5.5250 C.3       1 <0>        -0.1586
     22 C13         0.8216   -0.2539    6.8100 C.3       1 <0>        -0.0051
     23 N4          1.6458   -1.4040    6.4059 N.4       1 <0>        -0.3954
     24 C14         0.7034   -2.2471    5.6159 C.3       1 <0>         0.0267
     25 H3         -0.0121   -2.7352    6.2777 H         1 <0>         0.1566
     26 C15         1.5268   -3.2814    4.8629 C.3       1 <0>        -0.1359
     27 C16         2.2069   -4.1794    5.9087 C.3       1 <0>        -0.1382
     28 C17         3.0234   -3.3381    6.8892 C.3       1 <0>        -0.1477
     29 C18         2.1630   -2.2139    7.5008 C.3       1 <0>        -0.0034
     30 H4          1.0039    1.9031    0.0027 H         1 <0>         0.0601
     31 H5         -0.5459    1.8868   -0.8726 H         1 <0>         0.0765
     32 H6         -0.5289    1.8773    0.9072 H         1 <0>         0.0687
     33 H7          2.6628   -0.1783   -0.4315 H         1 <0>         0.1263
     34 H8          3.8153   -0.9720   -2.4573 H         1 <0>         0.1379
     35 H9          2.5070   -1.7297   -4.4012 H         1 <0>         0.1455
     36 H10        -1.1061   -0.9084   -2.2892 H         1 <0>         0.1450
     37 H11        -0.1895   -4.1583   -5.2952 H         1 <0>         0.4223
     38 H12        -1.4552   -5.1014   -3.5936 H         1 <0>         0.0864
     39 H13        -0.9429   -3.7086   -2.6107 H         1 <0>         0.0565
     40 H14        -2.3983   -3.5922   -3.6287 H         1 <0>         0.0717
     41 H15         1.6544   -0.7070    1.1351 H         1 <0>         0.3960
     42 H16         1.6468   -1.2976    3.3936 H         1 <0>         0.3952
     43 H17         0.5262    0.8652    4.9567 H         1 <0>         0.1048
     44 H18        -0.9925    0.3984    5.7813 H         1 <0>         0.1219
     45 H19         1.4517    0.5862    7.1022 H         1 <0>         0.1363
     46 H20         0.1481   -0.5303    7.6212 H         1 <0>         0.1367
     47 H21         0.8759   -3.8812    4.2268 H         1 <0>         0.1175
     48 H22         2.2822   -2.7826    4.2556 H         1 <0>         0.0849
     49 H23         1.4449   -4.7326    6.4577 H         1 <0>         0.0850
     50 H24         2.8673   -4.8838    5.4029 H         1 <0>         0.0968
     51 H25         3.3973   -3.9794    7.6873 H         1 <0>         0.1138
     52 H26         3.8676   -2.8924    6.3629 H         1 <0>         0.0857
     53 H27         2.7697   -1.5958    8.1626 H         1 <0>         0.1316
     54 H28         1.3355   -2.6516    8.0591 H         1 <0>         0.1307
     55 H29         2.4064   -1.0916    5.8211 H         1 <0>         0.4207
@<TRIPOS>BOND
     1    1    2 1
     2    1   30 1
     3    1   31 1
     4    1   32 1
     5    2    3 1
     6    2    4 1
     7    2   15 1
     8    4    9 ar
     9    4    5 ar
    10    5    6 ar
    11    5   33 1
    12    6    7 ar
    13    6   34 1
    14    7    8 ar
    15    7   35 1
    16    8    9 ar
    17    8   10 1
    18    9   36 1
    19   10   11 2
    20   10   12 2
    21   10   13 1
    22   13   14 1
    23   13   37 1
    24   14   38 1
    25   14   39 1
    26   14   40 1
    27   15   16 am
    28   15   41 1
    29   16   17 2
    30   16   18 am
    31   18   19 1
    32   18   42 1
    33   19   20 1
    34   19   24 1
    35   19   21 1
    36   21   22 1
    37   21   43 1
    38   21   44 1
    39   22   23 1
    40   22   45 1
    41   22   46 1
    42   23   29 1
    43   23   24 1
    44   23   55 1
    45   24   25 1
    46   24   26 1
    47   26   27 1
    48   26   47 1
    49   26   48 1
    50   27   28 1
    51   27   49 1
    52   27   50 1
    53   28   29 1
    54   28   51 1
    55   28   52 1
    56   29   53 1
    57   29   54 1
@<TRIPOS>MOLECULE
ZINC09969857
   57    59     0     0     0
SMALL
USER_CHARGES
2-benzoylamino-N-[2-methyl-1-(2-thienylcarbonylaminocarbamoyl)propyl]-benzamide
@<TRIPOS>ATOM
      1 C1          6.8639    3.7296    2.1895 C.3       1 <0>        -0.1389
      2 C2          8.1299    4.3085    1.5547 C.3       1 <0>        -0.1044
      3 C3          9.3540    3.8537    2.3519 C.3       1 <0>        -0.1525
      4 C4          8.2487    3.8141    0.1116 C.3       1 <0>         0.1462
      5 H1          7.3766    4.1381   -0.4564 H         1 <0>         0.1259
      6 C5          9.4957    4.3843   -0.5137 C.2       1 <0>         0.5165
      7 O1         10.3607    3.6416   -0.9273 O.2       1 <0>        -0.5289
      8 N1          9.6497    5.7195   -0.6132 N.am      1 <0>        -0.5118
      9 N2         10.8090    6.2495   -1.1945 N.am      1 <0>        -0.5180
     10 C6         10.9629    7.5848   -1.2941 C.2       1 <0>         0.6117
     11 O2         10.0950    8.3300   -0.8790 O.2       1 <0>        -0.5208
     12 C7         12.1759    8.1393   -1.9023 C.2       1 <0>        -0.2473
     13 C8         12.5242    9.4657   -2.1039 C.2       1 <0>        -0.0546
     14 C9         13.7361    9.7100   -2.7004 C.2       1 <0>        -0.1805
     15 C10        14.5180    8.6613   -3.0681 C.2       1 <0>        -0.1701
     16 S1         13.5851    7.2829   -2.5831 S.3       1 <0>         0.1496
     17 N3          8.3222    2.3510    0.1012 N.am      1 <0>        -0.7035
     18 C11         7.1906    1.6192    0.1223 C.2       1 <0>         0.5757
     19 O3          6.1087    2.1734    0.1500 O.2       1 <0>        -0.5370
     20 C12         7.2647    0.1460    0.1117 C.ar      1 <0>        -0.1743
     21 C13         8.5023   -0.4960    0.1980 C.ar      1 <0>        -0.0642
     22 C14         8.5653   -1.8724    0.1819 C.ar      1 <0>        -0.1425
     23 C15         7.4057   -2.6250    0.0858 C.ar      1 <0>        -0.0674
     24 C16         6.1753   -2.0051    0.0055 C.ar      1 <0>        -0.1339
     25 C17         6.0922   -0.6189    0.0203 C.ar      1 <0>         0.2133
     26 N4          4.8523    0.0085   -0.0609 N.am      1 <0>        -0.6555
     27 C18         3.7753   -0.5487    0.5273 C.2       1 <0>         0.5622
     28 O4          3.8684   -1.6382    1.0582 O.2       1 <0>        -0.5189
     29 C19         2.4810    0.1650    0.5268 C.ar      1 <0>        -0.1394
     30 C20         1.3635   -0.4093    1.1352 C.ar      1 <0>        -0.0566
     31 C21         0.1584    0.2620    1.1307 C.ar      1 <0>        -0.1292
     32 C22         0.0557    1.5016    0.5247 C.ar      1 <0>        -0.0892
     33 C23         1.1594    2.0765   -0.0801 C.ar      1 <0>        -0.1276
     34 C24         2.3706    1.4161   -0.0824 C.ar      1 <0>        -0.0784
     35 H2          6.9186    2.6410    2.1817 H         1 <0>         0.0578
     36 H3          6.7793    4.0818    3.2176 H         1 <0>         0.0554
     37 H4          5.9919    4.0537    1.6215 H         1 <0>         0.0685
     38 H5          8.0752    5.3971    1.5625 H         1 <0>         0.0864
     39 H6         10.2560    4.2660    1.8997 H         1 <0>         0.0530
     40 H7          9.2694    4.2058    3.3800 H         1 <0>         0.0655
     41 H8          9.4087    2.7651    2.3442 H         1 <0>         0.0607
     42 H9          8.9579    6.3135   -0.2824 H         1 <0>         0.4366
     43 H10        11.5008    5.6555   -1.5254 H         1 <0>         0.4329
     44 H11        11.8718   10.2718   -1.8023 H         1 <0>         0.1514
     45 H12        14.0623   10.7239   -2.8796 H         1 <0>         0.1458
     46 H13        15.4859    8.6815   -3.5467 H         1 <0>         0.1948
     47 H14         9.1854    1.9089    0.0790 H         1 <0>         0.4119
     48 H15         9.4091    0.0858    0.2731 H         1 <0>         0.1301
     49 H16         9.5233   -2.3672    0.2442 H         1 <0>         0.1322
     50 H17         7.4652   -3.7032    0.0732 H         1 <0>         0.1333
     51 H18         5.2761   -2.5986   -0.0692 H         1 <0>         0.1479
     52 H19         4.7635    0.8468   -0.5409 H         1 <0>         0.4222
     53 H20         1.4422   -1.3771    1.6079 H         1 <0>         0.1370
     54 H21        -0.7070   -0.1812    1.6010 H         1 <0>         0.1317
     55 H22        -0.8914    2.0207    0.5198 H         1 <0>         0.1289
     56 H23         1.0724    3.0442   -0.5516 H         1 <0>         0.1305
     57 H24         3.2312    1.8658   -0.5552 H         1 <0>         0.1297
@<TRIPOS>BOND
     1    1    2 1
     2    1   35 1
     3    1   36 1
     4    1   37 1
     5    2    3 1
     6    2    4 1
     7    2   38 1
     8    3   39 1
     9    3   40 1
    10    3   41 1
    11    4    5 1
    12    4    6 1
    13    4   17 1
    14    6    7 2
    15    6    8 am
    16    8    9 1
    17    8   42 1
    18    9   10 am
    19    9   43 1
    20   10   11 2
    21   10   12 1
    22   12   16 1
    23   12   13 2
    24   13   14 1
    25   13   44 1
    26   14   15 2
    27   14   45 1
    28   15   16 1
    29   15   46 1
    30   17   18 am
    31   17   47 1
    32   18   19 2
    33   18   20 1
    34   20   25 ar
    35   20   21 ar
    36   21   22 ar
    37   21   48 1
    38   22   23 ar
    39   22   49 1
    40   23   24 ar
    41   23   50 1
    42   24   25 ar
    43   24   51 1
    44   25   26 1
    45   26   27 am
    46   26   52 1
    47   27   28 2
    48   27   29 1
    49   29   34 ar
    50   29   30 ar
    51   30   31 ar
    52   30   53 1
    53   31   32 ar
    54   31   54 1
    55   32   33 ar
    56   32   55 1
    57   33   34 ar
    58   33   56 1
    59   34   57 1
@<TRIPOS>MOLECULE
ZINC16334949
   48    51     0     0     0
SMALL
USER_CHARGES
2-[[2-[[5-[(4-fluorophenyl)methylamino]-1,3,4-thiadiazol-2-yl]sulfanyl]acetyl]amino]-5,6-dihydro-4H-cyclopenta[d]thiophene-3-carboxamide
@<TRIPOS>ATOM
      1 C1          0.0021   -0.0041    0.0020 C.ar      1 <0>        -0.0653
      2 C2         -0.0167    1.3778    0.0096 C.ar      1 <0>        -0.1560
      3 C3          1.1732    2.0858    0.0021 C.ar      1 <0>         0.1142
      4 C4          2.3806    1.4083   -0.0131 C.ar      1 <0>        -0.1561
      5 C5          2.3969    0.0264   -0.0202 C.ar      1 <0>        -0.0653
      6 C6          1.2082   -0.6795   -0.0127 C.ar      1 <0>        -0.1296
      7 C7          1.2273   -2.1863   -0.0199 C.3       1 <0>         0.1758
      8 N1          1.2203   -2.6681   -1.4034 N.pl3     1 <0>        -0.6663
      9 C8          1.2352   -4.0334   -1.6640 C.2       1 <0>         0.3528
     10 N2          1.2557   -5.0451   -0.8187 N.2       1 <0>        -0.3716
     11 N3          1.2677   -6.3356   -1.2953 N.2       1 <0>        -0.2743
     12 C9          1.2587   -6.5547   -2.5962 C.2       1 <0>         0.0200
     13 S1          1.2239   -4.8863   -3.2335 S.3       1 <0>         0.0068
     14 S2          1.2701   -8.0842   -3.4710 S.3       1 <0>         0.1348
     15 C10         1.2985   -9.3388   -2.1611 C.3       1 <0>        -0.1582
     16 C11         1.3103  -10.7122   -2.7812 C.2       1 <0>         0.5344
     17 O1          1.3005  -10.8328   -3.9879 O.2       1 <0>        -0.4815
     18 N4          1.3318  -11.8065   -1.9947 N.am      1 <0>        -0.6116
     19 C12         1.3426  -13.0703   -2.5653 C.2       1 <0>         0.0635
     20 C13         1.3700  -14.3004   -1.9309 C.2       1 <0>        -0.2087
     21 C14         1.3720  -15.4965   -2.7725 C.2       1 <0>        -0.0948
     22 C15         1.3562  -15.2627   -4.0971 C.2       1 <0>        -0.2303
     23 S3          1.3328  -13.4928   -4.2436 S.3       1 <0>         0.2712
     24 C16         1.3622  -16.5384   -4.8951 C.3       1 <0>        -0.0325
     25 C17         0.9474  -17.6311   -3.8851 C.3       1 <0>        -0.1165
     26 C18         1.3952  -17.0089   -2.5476 C.3       1 <0>        -0.0615
     27 C19         1.3922  -14.4005   -0.4683 C.2       1 <0>         0.5821
     28 O2          0.3476  -14.4584    0.1536 O.2       1 <0>        -0.5320
     29 N5          2.5693  -14.4286    0.1875 N.am      1 <0>        -0.8472
     30 F1          1.1561    3.4366    0.0090 F         1 <0>        -0.1348
     31 H1         -0.9259   -0.5565    0.0079 H         1 <0>         0.1373
     32 H2         -0.9591    1.9052    0.0169 H         1 <0>         0.1405
     33 H3          3.3093    1.9595   -0.0187 H         1 <0>         0.1405
     34 H4          3.3385   -0.5023   -0.0313 H         1 <0>         0.1372
     35 H5          2.1267   -2.5407    0.4837 H         1 <0>         0.0851
     36 H6          0.3470   -2.5634    0.5005 H         1 <0>         0.0852
     37 H7          1.2053   -2.0344   -2.1376 H         1 <0>         0.4226
     38 H8          2.1927   -9.2076   -1.5517 H         1 <0>         0.1367
     39 H9          0.4129   -9.2304   -1.5349 H         1 <0>         0.1371
     40 H10         1.3396  -11.7100   -1.0296 H         1 <0>         0.4237
     41 H11         0.6407  -16.4804   -5.7101 H         1 <0>         0.0807
     42 H12         2.3606  -16.7392   -5.2836 H         1 <0>         0.0862
     43 H13        -0.1312  -17.7876   -3.9008 H         1 <0>         0.0779
     44 H14         1.4781  -18.5632   -4.0789 H         1 <0>         0.0850
     45 H15         0.7010  -17.2827   -1.7531 H         1 <0>         0.0743
     46 H16         2.4034  -17.3388   -2.2970 H         1 <0>         0.0808
     47 H17         3.4018  -14.3825   -0.3081 H         1 <0>         0.4037
     48 H18         2.5840  -14.4948    1.1551 H         1 <0>         0.4040
@<TRIPOS>BOND
     1    1    6 ar
     2    1    2 ar
     3    1   31 1
     4    2    3 ar
     5    2   32 1
     6    3    4 ar
     7    3   30 1
     8    4    5 ar
     9    4   33 1
    10    5    6 ar
    11    5   34 1
    12    6    7 1
    13    7    8 1
    14    7   35 1
    15    7   36 1
    16    8    9 1
    17    8   37 1
    18    9   13 1
    19    9   10 2
    20   10   11 1
    21   11   12 2
    22   12   13 1
    23   12   14 1
    24   14   15 1
    25   15   16 1
    26   15   38 1
    27   15   39 1
    28   16   17 2
    29   16   18 am
    30   18   19 1
    31   18   40 1
    32   19   23 1
    33   19   20 2
    34   20   21 1
    35   20   27 1
    36   21   26 1
    37   21   22 2
    38   22   23 1
    39   22   24 1
    40   24   25 1
    41   24   41 1
    42   24   42 1
    43   25   26 1
    44   25   43 1
    45   25   44 1
    46   26   45 1
    47   26   46 1
    48   27   28 2
    49   27   29 am
    50   29   47 1
    51   29   48 1
@<TRIPOS>MOLECULE
ZINC25159127
   53    54     0     0     0
SMALL
USER_CHARGES
N-[(1R)-1-(4-fluorophenyl)-2-methyl-propyl]-3-[(2-nitro-4-sulfamoyl-phenyl)amino]propanamide
@<TRIPOS>ATOM
      1 C1         -3.9236    5.9898   10.9334 C.3       1 <0>        -0.1541
      2 C2         -3.8007    7.1383    9.9300 C.3       1 <0>        -0.1005
      3 C3         -2.4674    7.0265    9.1878 C.3       1 <0>        -0.1404
      4 C4         -4.9518    7.0628    8.9249 C.3       1 <0>         0.1959
      5 H1         -4.8269    7.8070    8.1246 H         1 <0>         0.0993
      6 C5         -6.2583    7.2954    9.6391 C.ar      1 <0>        -0.1020
      7 C6         -6.8553    6.2644   10.3403 C.ar      1 <0>        -0.0855
      8 C7         -8.0505    6.4782   11.0003 C.ar      1 <0>        -0.1497
      9 C8         -8.6560    7.7223   10.9493 C.ar      1 <0>         0.1020
     10 C9         -8.0600    8.7526   10.2420 C.ar      1 <0>        -0.1482
     11 C10        -6.8616    8.5382    9.5878 C.ar      1 <0>        -0.0774
     12 F1         -9.8277    7.9307   11.5888 F         1 <0>        -0.1371
     13 N1         -4.9669    5.7386    8.2983 N.am      1 <0>        -0.7326
     14 C11        -4.1868    5.4909    7.2275 C.2       1 <0>         0.5235
     15 O1         -3.4723    6.3642    6.7827 O.2       1 <0>        -0.5331
     16 C12        -4.2023    4.1288    6.5829 C.3       1 <0>        -0.1566
     17 C13        -3.2349    4.1145    5.3976 C.3       1 <0>         0.1214
     18 N2         -3.2500    2.7904    4.7710 N.pl3     1 <0>        -0.7183
     19 C14        -2.4415    2.5336    3.6613 C.ar      1 <0>         0.3326
     20 C15        -1.5356    3.4916    3.2233 C.ar      1 <0>        -0.2180
     21 C16        -0.7342    3.2325    2.1291 C.ar      1 <0>         0.0635
     22 C17        -0.8407    2.0254    1.4624 C.ar      1 <0>        -0.7280
     23 C18        -1.7412    1.0699    1.8955 C.ar      1 <0>         0.1048
     24 C19        -2.5418    1.3203    2.9929 C.ar      1 <0>        -0.1470
     25 N3         -3.5059    0.2970    3.4555 N.pl3     1 <0>         0.0554
     26 O2         -3.6739   -0.7194    2.8057 O.2       1 <0>        -0.1336
     27 O3         -4.1312    0.4713    4.4861 O.3       1 <0>        -0.2065
     28 S1          0.1788    1.7018    0.0621 S.o2      1 <0>         2.6451
     29 O4          0.2782    0.2887   -0.0499 O.2       1 <0>        -0.9472
     30 O5          1.3205    2.5382    0.1890 O.2       1 <0>        -0.9817
     31 N4         -0.6455    2.2258   -1.2752 N.pl3     1 <0>        -1.1621
     32 H2         -4.8821    6.0701   11.4670 H         1 <0>         0.0611
     33 H3         -3.0960    6.0441   11.6560 H         1 <0>         0.0572
     34 H4         -3.8810    5.0295   10.3986 H         1 <0>         0.0551
     35 H5         -3.8433    8.0986   10.4648 H         1 <0>         0.0802
     36 H6         -2.3790    7.8522    8.4664 H         1 <0>         0.0610
     37 H7         -2.4249    6.0662    8.6530 H         1 <0>         0.0564
     38 H8         -1.6398    7.0807    9.9104 H         1 <0>         0.0489
     39 H9         -6.3854    5.2926   10.3756 H         1 <0>         0.1333
     40 H10        -8.5144    5.6739   11.5520 H         1 <0>         0.1384
     41 H11        -8.5315    9.7234   10.2012 H         1 <0>         0.1388
     42 H12        -6.3965    9.3417    9.0361 H         1 <0>         0.1354
     43 H13        -5.6149    4.9466    8.7018 H         1 <0>         0.4196
     44 H14        -3.8925    3.3716    7.3182 H         1 <0>         0.1055
     45 H15        -5.2189    3.9020    6.2293 H         1 <0>         0.1058
     46 H16        -3.5447    4.8717    4.6623 H         1 <0>         0.0820
     47 H17        -2.2183    4.3413    5.7513 H         1 <0>         0.0820
     48 H18        -3.8981    1.9984    5.1744 H         1 <0>         0.4455
     49 H19        -1.4551    4.4361    3.7409 H         1 <0>         0.1558
     50 H20        -0.0264    3.9749    1.7910 H         1 <0>         0.1580
     51 H21        -1.8184    0.1264    1.3755 H         1 <0>         0.1702
     52 H22        -0.0401    2.0409   -2.1748 H         1 <0>         0.4163
     53 H23        -0.8461    3.3034   -1.1833 H         1 <0>         0.4095
@<TRIPOS>BOND
     1    1    2 1
     2    1   32 1
     3    1   33 1
     4    1   34 1
     5    2    3 1
     6    2    4 1
     7    2   35 1
     8    3   36 1
     9    3   37 1
    10    3   38 1
    11    4    5 1
    12    4    6 1
    13    4   13 1
    14    6   11 ar
    15    6    7 ar
    16    7    8 ar
    17    7   39 1
    18    8    9 ar
    19    8   40 1
    20    9   10 ar
    21    9   12 1
    22   10   11 ar
    23   10   41 1
    24   11   42 1
    25   13   14 am
    26   13   43 1
    27   14   15 2
    28   14   16 1
    29   16   17 1
    30   16   44 1
    31   16   45 1
    32   17   18 1
    33   17   46 1
    34   17   47 1
    35   18   19 1
    36   18   48 1
    37   19   24 ar
    38   19   20 ar
    39   20   21 ar
    40   20   49 1
    41   21   22 ar
    42   21   50 1
    43   22   23 ar
    44   22   28 1
    45   23   24 ar
    46   23   51 1
    47   24   25 1
    48   25   26 2
    49   25   27 1
    50   28   29 2
    51   28   30 2
    52   28   31 1
    53   31   52 1
    54   31   53 1
@<TRIPOS>MOLECULE
ZINC38915309
   57    60     0     0     0
SMALL
USER_CHARGES

@<TRIPOS>ATOM
      1 C1         -0.0184    1.5028    0.0103 C.3       1 <0>        -0.1168
      2 C2          0.0021   -0.0041    0.0020 C.ar      1 <0>        -0.0873
      3 C3          0.0057   -0.6873   -1.2005 C.ar      1 <0>        -0.1000
      4 C4          0.0239   -2.0679   -1.2119 C.ar      1 <0>        -0.0925
      5 C5          0.0391   -2.7710   -0.0132 C.ar      1 <0>        -0.0924
      6 C6          0.0359   -2.0810    1.1932 C.ar      1 <0>        -0.1298
      7 C7          0.0229   -0.7003    1.1969 C.ar      1 <0>        -0.1003
      8 S1          0.0619   -4.5328   -0.0229 S.3       1 <0>        -0.0817
      9 C8          0.0766   -4.9812    1.7348 C.3       1 <0>        -0.0475
     10 C9          0.0967   -6.4819    1.8702 C.2       1 <0>         0.0035
     11 C10         1.1456   -7.1892    2.2146 C.2       1 <0>        -0.1246
     12 C11         2.5254   -6.8307    2.6950 C.3       1 <0>         0.1093
     13 H1          2.5408   -5.8059    3.0659 H         1 <0>         0.1110
     14 C12         2.8289   -7.8009    3.8216 C.2       1 <0>        -0.2849
     15 C13         2.0247   -8.8509    4.0893 C.2       1 <0>         0.4504
     16 O1          0.8812   -9.1692    3.4566 O.3       1 <0>        -0.2761
     17 C14         0.6864   -8.6457    2.1402 C.3       1 <0>         0.1644
     18 H2          1.2359   -9.2145    1.3901 H         1 <0>         0.1691
     19 N1         -0.7340   -8.5004    1.8056 N.2       1 <0>        -0.1269
     20 N2         -0.9702   -7.2944    1.6587 N.2       1 <0>        -0.1002
     21 N3          2.4137   -9.6793    5.1117 N.pl3     1 <0>        -0.8319
     22 C15         3.9993   -7.5972    4.6211 C.1       1 <0>         0.2726
     23 N4          4.9278   -7.4356    5.2554 N.1       1 <0>        -0.4361
     24 C16         3.5246   -6.9949    1.5789 C.ar      1 <0>        -0.0737
     25 C17         3.6952   -8.2303    0.9821 C.ar      1 <0>        -0.1056
     26 C18         4.6105   -8.3861   -0.0421 C.ar      1 <0>        -0.1690
     27 C19         5.3591   -7.3026   -0.4730 C.ar      1 <0>         0.1054
     28 C20         5.1871   -6.0591    0.1273 C.ar      1 <0>         0.1157
     29 C21         4.2644   -5.9087    1.1502 C.ar      1 <0>        -0.1539
     30 O2          5.9194   -4.9927   -0.2921 O.3       1 <0>        -0.2988
     31 C22         5.6898   -3.7473    0.3700 C.3       1 <0>         0.0241
     32 O3          6.2603   -7.4543   -1.4801 O.3       1 <0>        -0.2761
     33 C23         6.3839   -8.7593   -2.0490 C.3       1 <0>         0.0370
     34 C24         7.4215   -8.7348   -3.1417 C.2       1 <0>         0.5187
     35 O4          7.9982   -7.7014   -3.4072 O.2       1 <0>        -0.5127
     36 N5          7.7084   -9.8611   -3.8240 N.am      1 <0>        -0.8508
     37 H3          1.0042    1.8801    0.0026 H         1 <0>         0.0722
     38 H4         -0.5455    1.8639   -0.8728 H         1 <0>         0.0683
     39 H5         -0.5286    1.8543    0.9071 H         1 <0>         0.0675
     40 H6         -0.0061   -0.1403   -2.1316 H         1 <0>         0.1289
     41 H7          0.0260   -2.6008   -2.1513 H         1 <0>         0.1286
     42 H8          0.0477   -2.6241    2.1266 H         1 <0>         0.1219
     43 H9          0.0244   -0.1634    2.1339 H         1 <0>         0.1261
     44 H10         0.9637   -4.5616    2.2093 H         1 <0>         0.1094
     45 H11        -0.8161   -4.5846    2.2184 H         1 <0>         0.1153
     46 H12         3.2309   -9.4952    5.6008 H         1 <0>         0.4248
     47 H13         1.8715  -10.4489    5.3454 H         1 <0>         0.4123
     48 H14         3.1124   -9.0756    1.3170 H         1 <0>         0.1185
     49 H15         4.7424   -9.3524   -0.5061 H         1 <0>         0.1379
     50 H16         4.1263   -4.9438    1.6153 H         1 <0>         0.1382
     51 H17         4.6474   -3.4550    0.2428 H         1 <0>         0.0574
     52 H18         5.9102   -3.8544    1.4321 H         1 <0>         0.0552
     53 H19         6.3366   -2.9825   -0.0600 H         1 <0>         0.1032
     54 H20         6.6871   -9.4654   -1.2760 H         1 <0>         0.0945
     55 H21         5.4247   -9.0664   -2.4657 H         1 <0>         0.0951
     56 H22         7.2471  -10.6876   -3.6117 H         1 <0>         0.4031
     57 H23         8.3762   -9.8453   -4.5273 H         1 <0>         0.4102
@<TRIPOS>BOND
     1    1    2 1
     2    1   37 1
     3    1   38 1
     4    1   39 1
     5    2    7 ar
     6    2    3 ar
     7    3    4 ar
     8    3   40 1
     9    4    5 ar
    10    4   41 1
    11    5    6 ar
    12    5    8 1
    13    6    7 ar
    14    6   42 1
    15    7   43 1
    16    8    9 1
    17    9   10 1
    18    9   44 1
    19    9   45 1
    20   10   20 1
    21   10   11 2
    22   11   17 1
    23   11   12 1
    24   12   13 1
    25   12   14 1
    26   12   24 1
    27   14   15 2
    28   14   22 1
    29   15   16 1
    30   15   21 1
    31   16   17 1
    32   17   18 1
    33   17   19 1
    34   19   20 2
    35   21   46 1
    36   21   47 1
    37   22   23 3
    38   24   29 ar
    39   24   25 ar
    40   25   26 ar
    41   25   48 1
    42   26   27 ar
    43   26   49 1
    44   27   28 ar
    45   27   32 1
    46   28   29 ar
    47   28   30 1
    48   29   50 1
    49   30   31 1
    50   31   51 1
    51   31   52 1
    52   31   53 1
    53   32   33 1
    54   33   34 1
    55   33   54 1
    56   33   55 1
    57   34   35 2
    58   34   36 am
    59   36   56 1
    60   36   57 1
@<TRIPOS>MOLECULE
ZINC58504390
   46    47     0     0     0
SMALL
USER_CHARGES

@<TRIPOS>ATOM
      1 C1         -0.2918    1.7766    0.5491 C.3       1 <0>        -0.1539
      2 C2         -0.1931    0.2511    0.4865 C.3       1 <0>        -0.1211
      3 C3         -1.5976   -0.3470    0.3838 C.3       1 <0>        -0.1331
      4 C4         -1.4989   -1.8726    0.3211 C.3       1 <0>         0.1143
      5 N1         -2.8437   -2.4453    0.2227 N.pl3     1 <0>        -0.7329
      6 C5         -3.0099   -3.8338    0.1518 C.ar      1 <0>         0.2763
      7 C6         -1.9033   -4.6688    0.1804 C.ar      1 <0>        -0.2087
      8 C7         -2.0697   -6.0397    0.1107 C.ar      1 <0>         0.0427
      9 C8         -3.3376   -6.5821    0.0126 C.ar      1 <0>        -0.7216
     10 C9         -4.4466   -5.7568   -0.0165 C.ar      1 <0>         0.0459
     11 C10        -4.2893   -4.3811    0.0581 C.ar      1 <0>         0.0199
     12 N2         -5.4112   -3.5438    0.0342 N.pl3     1 <0>        -1.0470
     13 S1         -6.4980   -3.5797    1.2832 S.o2      1 <0>         2.6891
     14 O1         -7.5101   -2.6333    0.9682 O.2       1 <0>        -0.9368
     15 O2         -6.7861   -4.9489    1.5315 O.2       1 <0>        -0.9239
     16 C11        -5.6680   -2.9722    2.7137 C.ar      1 <0>        -0.7106
     17 C12        -6.0831   -1.7934    3.3048 C.ar      1 <0>         0.0294
     18 C13        -5.4337   -1.3148    4.4270 C.ar      1 <0>        -0.1546
     19 C14        -4.3658   -2.0153    4.9614 C.ar      1 <0>         0.1577
     20 C15        -3.9481   -3.1971    4.3704 C.ar      1 <0>         0.0163
     21 C16        -4.6044   -3.6784    3.2483 C.ar      1 <0>         0.2002
     22 F1         -4.2029   -4.8334    2.6738 F         1 <0>        -0.0946
     23 F2         -2.9059   -3.8818    4.8902 F         1 <0>        -0.1078
     24 F3         -3.7310   -1.5468    6.0581 F         1 <0>        -0.1052
     25 S2         -3.5408   -8.3300   -0.0763 S.o2      1 <0>         2.7033
     26 O3         -4.7904   -8.5618   -0.7120 O.2       1 <0>        -0.9629
     27 O4         -2.3206   -8.8557   -0.5803 O.2       1 <0>        -0.9660
     28 N3         -3.6898   -8.8852    1.4767 N.pl3     1 <0>        -1.2502
     29 H1          0.7088    2.2028    0.6223 H         1 <0>         0.0584
     30 H2         -0.7791    2.1466   -0.3529 H         1 <0>         0.0556
     31 H3         -0.8753    2.0674    1.4227 H         1 <0>         0.0544
     32 H4          0.3904   -0.0397   -0.3870 H         1 <0>         0.0670
     33 H5          0.2942   -0.1188    1.3886 H         1 <0>         0.0654
     34 H6         -2.1811   -0.0562    1.2573 H         1 <0>         0.0684
     35 H7         -2.0850    0.0229   -0.5183 H         1 <0>         0.0721
     36 H8         -0.9154   -2.1633   -0.5524 H         1 <0>         0.0715
     37 H9         -1.0116   -2.2425    1.2232 H         1 <0>         0.0677
     38 H10        -3.6191   -1.8626    0.2067 H         1 <0>         0.4023
     39 H11        -0.9114   -4.2484    0.2566 H         1 <0>         0.1393
     40 H12        -1.2067   -6.6886    0.1327 H         1 <0>         0.1483
     41 H13        -5.4356   -6.1838   -0.0936 H         1 <0>         0.1587
     42 H14        -5.5519   -2.9426   -0.7139 H         1 <0>         0.4267
     43 H15        -6.9158   -1.2457    2.8889 H         1 <0>         0.1741
     44 H16        -5.7593   -0.3936    4.8871 H         1 <0>         0.1682
     45 H17        -3.6553   -8.2626    2.2198 H         1 <0>         0.4173
     46 H18        -3.8114   -9.8330    1.6434 H         1 <0>         0.4205
@<TRIPOS>BOND
     1    1    2 1
     2    1   29 1
     3    1   30 1
     4    1   31 1
     5    2    3 1
     6    2   32 1
     7    2   33 1
     8    3    4 1
     9    3   34 1
    10    3   35 1
    11    4    5 1
    12    4   36 1
    13    4   37 1
    14    5    6 1
    15    5   38 1
    16    6   11 ar
    17    6    7 ar
    18    7    8 ar
    19    7   39 1
    20    8    9 ar
    21    8   40 1
    22    9   10 ar
    23    9   25 1
    24   10   11 ar
    25   10   41 1
    26   11   12 1
    27   12   13 1
    28   12   42 1
    29   13   14 2
    30   13   15 2
    31   13   16 1
    32   16   21 ar
    33   16   17 ar
    34   17   18 ar
    35   17   43 1
    36   18   19 ar
    37   18   44 1
    38   19   20 ar
    39   19   24 1
    40   20   21 ar
    41   20   23 1
    42   21   22 1
    43   25   26 2
    44   25   27 2
    45   25   28 1
    46   28   45 1
    47   28   46 1
@<TRIPOS>MOLECULE
ZINC00525403
   36    37     0     0     0
SMALL
USER_CHARGES
1-[3-(5-methyl-2-furyl)prop-2-enoylamino]-3-phenyl-urea
@<TRIPOS>ATOM
      1 C1         -0.0030    1.1484   -0.0120 C.3       1 <0>        -0.0820
      2 C2         -0.7090    1.6288    1.2296 C.2       1 <0>         0.0210
      3 C3         -0.1174    1.8951    2.4153 C.2       1 <0>        -0.2201
      4 C4         -1.1250    2.3142    3.2971 C.2       1 <0>        -0.1400
      5 C5         -2.3071    2.2810    2.5867 C.2       1 <0>        -0.0320
      6 O1         -2.0239    1.8664    1.3342 O.3       1 <0>        -0.1639
      7 C6         -3.5881    2.6263    3.0817 C.2       1 <0>         0.0447
      8 C7         -4.6723    2.5478    2.2707 C.2       1 <0>        -0.2273
      9 C8         -5.9528    2.8929    2.7655 C.2       1 <0>         0.5606
     10 O2         -6.0809    3.2603    3.9194 O.2       1 <0>        -0.5366
     11 N1         -7.0302    2.8149    1.9595 N.am      1 <0>        -0.5303
     12 N2         -8.2976    3.1565    2.4493 N.am      1 <0>        -0.5242
     13 C9         -9.3750    3.0784    1.6433 C.2       1 <0>         0.7137
     14 O3        -10.4749    3.3749    2.0683 O.2       1 <0>        -0.5509
     15 N3         -9.2331    2.6718    0.3662 N.am      1 <0>        -0.6839
     16 C10       -10.3622    2.4974   -0.4421 C.ar      1 <0>         0.1551
     17 C11       -10.3885    1.4841   -1.3913 C.ar      1 <0>        -0.1448
     18 C12       -11.5063    1.3113   -2.1839 C.ar      1 <0>        -0.1009
     19 C13       -12.5942    2.1528   -2.0405 C.ar      1 <0>        -0.1325
     20 C14       -12.5688    3.1663   -1.1001 C.ar      1 <0>        -0.1006
     21 C15       -11.4563    3.3408   -0.3006 C.ar      1 <0>        -0.1188
     22 H1          0.0192    0.0586   -0.0187 H         1 <0>         0.0879
     23 H2          1.0170    1.5326   -0.0216 H         1 <0>         0.0941
     24 H3         -0.5344    1.5064   -0.8937 H         1 <0>         0.0805
     25 H4          0.9346    1.8029    2.6415 H         1 <0>         0.1564
     26 H5         -0.9999    2.6054    4.3296 H         1 <0>         0.1601
     27 H6         -3.7017    2.9521    4.1051 H         1 <0>         0.1639
     28 H7         -4.5586    2.2220    1.2473 H         1 <0>         0.1355
     29 H8         -6.9281    2.5222    1.0404 H         1 <0>         0.4203
     30 H9         -8.3997    3.4491    3.3684 H         1 <0>         0.4478
     31 H10        -8.3485    2.5001    0.0073 H         1 <0>         0.4017
     32 H11        -9.5376    0.8291   -1.5066 H         1 <0>         0.1250
     33 H12       -11.5290    0.5209   -2.9195 H         1 <0>         0.1275
     34 H13       -13.4654    2.0184   -2.6646 H         1 <0>         0.1246
     35 H14       -13.4200    3.8219   -0.9905 H         1 <0>         0.1273
     36 H15       -11.4371    4.1325    0.4337 H         1 <0>         0.1410
@<TRIPOS>BOND
     1    1    2 1
     2    1   22 1
     3    1   23 1
     4    1   24 1
     5    2    6 1
     6    2    3 2
     7    3    4 1
     8    3   25 1
     9    4    5 2
    10    4   26 1
    11    5    6 1
    12    5    7 1
    13    7    8 2
    14    7   27 1
    15    8    9 1
    16    8   28 1
    17    9   10 2
    18    9   11 am
    19   11   12 1
    20   11   29 1
    21   12   13 am
    22   12   30 1
    23   13   14 2
    24   13   15 am
    25   15   16 1
    26   15   31 1
    27   16   21 ar
    28   16   17 ar
    29   17   18 ar
    30   17   32 1
    31   18   19 ar
    32   18   33 1
    33   19   20 ar
    34   19   34 1
    35   20   21 ar
    36   20   35 1
    37   21   36 1
@<TRIPOS>MOLECULE
ZINC37905076
   44    45     0     0     0
SMALL
USER_CHARGES

@<TRIPOS>ATOM
      1 C1          0.2465    1.4969    0.1676 C.3       1 <0>        -0.1052
      2 C2          0.1967   -0.0084    0.1176 C.ar      1 <0>        -0.1754
      3 C3          0.0913   -0.6553   -1.0989 C.ar      1 <0>        -0.0477
      4 C4          0.0454   -2.0350   -1.1492 C.ar      1 <0>        -0.2271
      5 C5          0.1051   -2.7772    0.0245 C.ar      1 <0>         0.1966
      6 C6          0.2109   -2.1307    1.2476 C.ar      1 <0>        -0.1802
      7 C7          0.2625   -0.7445    1.2943 C.ar      1 <0>         0.2420
      8 N1          0.3752   -0.0900    2.5229 N.pl3     1 <0>        -0.8737
      9 C8          0.2759   -2.9321    2.5222 C.3       1 <0>        -0.1036
     10 N2          0.0581   -4.1721   -0.0273 N.pl3     1 <0>        -1.0634
     11 S1          0.7798   -4.9789   -1.2805 S.o2      1 <0>         2.7842
     12 O1          0.5560   -6.3639   -1.0543 O.2       1 <0>        -0.9665
     13 O2          0.3694   -4.3259   -2.4739 O.2       1 <0>        -0.9590
     14 N3          2.4121   -4.7348   -1.1446 N.pl3     1 <0>        -1.0002
     15 C9          3.0632   -3.5875   -1.7965 C.3       1 <0>         0.0909
     16 C10         3.9248   -2.8646   -0.7548 C.3       1 <0>         0.0758
     17 H1          4.5221   -2.0965   -1.2461 H         1 <0>         0.1132
     18 O3          4.7901   -3.8102   -0.1216 O.3       1 <0>        -0.3666
     19 C11         4.1064   -4.8348    0.6040 C.3       1 <0>         0.0715
     20 H2          3.4627   -4.3801    1.3570 H         1 <0>         0.0659
     21 C12         3.2532   -5.6555   -0.3634 C.3       1 <0>         0.0917
     22 C13         5.1282   -5.7456    1.2876 C.3       1 <0>        -0.1465
     23 C14         3.0204   -2.2152    0.2946 C.3       1 <0>        -0.1920
     24 H3          1.2828    1.8286    0.1028 H         1 <0>         0.0655
     25 H4         -0.3193    1.9072   -0.6688 H         1 <0>         0.0678
     26 H5         -0.1880    1.8438    1.1052 H         1 <0>         0.0576
     27 H6          0.0444   -0.0810   -2.0123 H         1 <0>         0.1284
     28 H7         -0.0374   -2.5375   -2.1016 H         1 <0>         0.1621
     29 H8          0.4075    0.8789    2.5552 H         1 <0>         0.3996
     30 H9          0.4211   -0.6044    3.3440 H         1 <0>         0.3976
     31 H10         1.3162   -3.1568    2.7575 H         1 <0>         0.0659
     32 H11        -0.1645   -2.3564    3.3363 H         1 <0>         0.0629
     33 H12        -0.2770   -3.8628    2.3948 H         1 <0>         0.0625
     34 H13        -0.3972   -4.6683    0.6708 H         1 <0>         0.4230
     35 H14         3.6930   -3.9385   -2.6140 H         1 <0>         0.0834
     36 H15         2.3053   -2.9060   -2.1828 H         1 <0>         0.1014
     37 H16         2.6211   -6.3428    0.1987 H         1 <0>         0.0962
     38 H17         3.9024   -6.2182   -1.0342 H         1 <0>         0.0851
     39 H18         5.7360   -5.1578    1.9754 H         1 <0>         0.0684
     40 H19         4.6062   -6.5266    1.8405 H         1 <0>         0.0741
     41 H20         5.7702   -6.2013    0.5338 H         1 <0>         0.0676
     42 H21         2.4247   -2.9840    0.7867 H         1 <0>         0.0673
     43 H22         3.6337   -1.7014    1.0349 H         1 <0>         0.0614
     44 H23         2.3585   -1.4975   -0.1902 H         1 <0>         0.0773
@<TRIPOS>BOND
     1    1    2 1
     2    1   24 1
     3    1   25 1
     4    1   26 1
     5    2    7 ar
     6    2    3 ar
     7    3    4 ar
     8    3   27 1
     9    4    5 ar
    10    4   28 1
    11    5    6 ar
    12    5   10 1
    13    6    7 ar
    14    6    9 1
    15    7    8 1
    16    8   29 1
    17    8   30 1
    18    9   31 1
    19    9   32 1
    20    9   33 1
    21   10   11 1
    22   10   34 1
    23   11   12 2
    24   11   13 2
    25   11   14 1
    26   14   21 1
    27   14   15 1
    28   15   16 1
    29   15   35 1
    30   15   36 1
    31   16   17 1
    32   16   18 1
    33   16   23 1
    34   18   19 1
    35   19   20 1
    36   19   21 1
    37   19   22 1
    38   21   37 1
    39   21   38 1
    40   22   39 1
    41   22   40 1
    42   22   41 1
    43   23   42 1
    44   23   43 1
    45   23   44 1
@<TRIPOS>MOLECULE
ZINC44971135
   38    40     0     0     0
SMALL
USER_CHARGES

@<TRIPOS>ATOM
      1 C1         -0.0187    1.5258    0.0104 C.3       1 <0>        -0.1611
      2 C2          0.0021   -0.0041    0.0020 C.3       1 <0>         0.2067
      3 H1         -1.0205   -0.3814    0.0098 H         1 <0>         0.1010
      4 C3          0.7309   -0.5033    1.2229 C.ar      1 <0>        -0.1134
      5 C4          2.1138   -0.5130    1.2450 C.ar      1 <0>        -0.0828
      6 C5          2.7852   -0.9696    2.3622 C.ar      1 <0>        -0.1458
      7 C6          2.0697   -1.4190    3.4642 C.ar      1 <0>         0.1634
      8 C7          0.6814   -1.4075    3.4387 C.ar      1 <0>        -0.1176
      9 C8          0.0157   -0.9452    2.3207 C.ar      1 <0>        -0.0669
     10 C9         -0.0944   -1.8945    4.6349 C.3       1 <0>        -0.0792
     11 C10         0.6668   -3.0376    5.3070 C.3       1 <0>        -0.1394
     12 C11         2.1071   -2.6483    5.5038 C.2       1 <0>         0.5208
     13 O1          2.7018   -3.0297    6.4897 O.2       1 <0>        -0.5234
     14 N1          2.7431   -1.8821    4.5986 N.am      1 <0>        -0.6650
     15 N2          0.6878   -0.4765   -1.2033 N.am      1 <0>        -0.7333
     16 C12         0.0062   -0.6081   -2.3585 C.2       1 <0>         0.7007
     17 O2         -1.1778   -0.3348   -2.4004 O.2       1 <0>        -0.5229
     18 N3          0.6370   -1.0428   -3.4674 N.am      1 <0>        -0.6313
     19 C13        -0.0659   -1.1785   -4.6589 C.2       1 <0>         0.2905
     20 N4         -1.3360   -0.9272   -4.8919 N.2       1 <0>        -0.5212
     21 C14        -1.8587   -1.1091   -6.0907 C.2       1 <0>         0.0645
     22 C15        -1.0297   -1.5637   -7.0618 C.2       1 <0>        -0.2462
     23 S1          0.5028   -1.6974   -6.1555 S.3       1 <0>         0.1062
     24 H2          1.0039    1.9031    0.0027 H         1 <0>         0.0595
     25 H3         -0.5459    1.8868   -0.8726 H         1 <0>         0.0674
     26 H4         -0.5289    1.8773    0.9072 H         1 <0>         0.0713
     27 H5          2.6693   -0.1635    0.3873 H         1 <0>         0.1269
     28 H6          3.8651   -0.9774    2.3786 H         1 <0>         0.1316
     29 H7         -1.0641   -0.9327    2.3022 H         1 <0>         0.1346
     30 H8         -0.2206   -1.0760    5.3436 H         1 <0>         0.0860
     31 H9         -1.0732   -2.2499    4.3127 H         1 <0>         0.0949
     32 H10         0.2147   -3.2538    6.2750 H         1 <0>         0.1118
     33 H11         0.6147   -3.9264    4.6781 H         1 <0>         0.1052
     34 H12         3.6751   -1.6499    4.7337 H         1 <0>         0.4120
     35 H13         1.6324   -0.6946   -1.1699 H         1 <0>         0.3967
     36 H14         1.5816   -1.2609   -3.4340 H         1 <0>         0.4217
     37 H15        -2.9007   -0.9051   -6.2886 H         1 <0>         0.1763
     38 H16        -1.2377   -1.7810   -8.0991 H         1 <0>         0.1996
@<TRIPOS>BOND
     1    1    2 1
     2    1   24 1
     3    1   25 1
     4    1   26 1
     5    2    3 1
     6    2    4 1
     7    2   15 1
     8    4    9 ar
     9    4    5 ar
    10    5    6 ar
    11    5   27 1
    12    6    7 ar
    13    6   28 1
    14    7   14 1
    15    7    8 ar
    16    8    9 ar
    17    8   10 1
    18    9   29 1
    19   10   11 1
    20   10   30 1
    21   10   31 1
    22   11   12 1
    23   11   32 1
    24   11   33 1
    25   12   13 2
    26   12   14 am
    27   14   34 1
    28   15   16 am
    29   15   35 1
    30   16   17 2
    31   16   18 am
    32   18   19 1
    33   18   36 1
    34   19   23 1
    35   19   20 2
    36   20   21 1
    37   21   22 2
    38   21   37 1
    39   22   23 1
    40   22   38 1
@<TRIPOS>MOLECULE
ZINC50641315
   41    43     0     0     0
SMALL
USER_CHARGES

@<TRIPOS>ATOM
      1 C1         -0.0187    1.5258    0.0104 C.3       1 <0>        -0.1474
      2 C2          0.0021   -0.0041    0.0020 C.3       1 <0>        -0.0944
      3 H1          0.5123   -0.3556   -0.8948 H         1 <0>         0.0852
      4 C3         -1.4333   -0.5336    0.0129 C.3       1 <0>        -0.1149
      5 C4         -1.4126   -2.0635    0.0045 C.3       1 <0>        -0.1224
      6 C5         -0.6726   -2.5703    1.2440 C.3       1 <0>        -0.1189
      7 C6          0.7628   -2.0407    1.2331 C.3       1 <0>        -0.1404
      8 C7          0.7421   -0.5109    1.2415 C.3       1 <0>         0.1597
      9 H2          1.7647   -0.1336    1.2338 H         1 <0>         0.0820
     10 N1          0.0564   -0.0384    2.4469 N.pl3     1 <0>        -1.1074
     11 S1          0.9316    0.3599    3.7950 S.o2      1 <0>         2.7282
     12 O1         -0.0030    0.8010    4.7703 O.2       1 <0>        -0.9636
     13 O2          1.8273   -0.7178    4.0308 O.2       1 <0>        -0.9487
     14 C8          1.9224    1.7563    3.3791 C.2       1 <0>        -0.7202
     15 C9          3.1762    1.7299    2.8590 C.2       1 <0>         0.4528
     16 N2          3.5891    2.9900    2.6834 N.2       1 <0>        -0.5403
     17 C10         2.6328    3.8216    3.0773 C.2       1 <0>         0.3022
     18 N3          1.5702    3.0747    3.5142 N.pl3     1 <0>        -0.3026
     19 C11         0.4393    3.6837    3.9735 C.2       1 <0>         0.0711
     20 C12         0.3466    5.0304    4.0020 C.2       1 <0>        -0.1526
     21 C13         1.4169    5.8231    3.5578 C.2       1 <0>        -0.0662
     22 C14         2.5541    5.2276    3.1051 C.2       1 <0>        -0.1078
     23 N4          3.9133    0.5775    2.5577 N.pl3     1 <0>        -0.8361
     24 H3          1.0039    1.9031    0.0027 H         1 <0>         0.0529
     25 H4         -0.5459    1.8868   -0.8726 H         1 <0>         0.0586
     26 H5         -0.5289    1.8773    0.9072 H         1 <0>         0.0539
     27 H6         -1.9435   -0.1821    0.9097 H         1 <0>         0.0615
     28 H7         -1.9605   -0.1726   -0.8702 H         1 <0>         0.0669
     29 H8         -2.4352   -2.4408    0.0122 H         1 <0>         0.0637
     30 H9         -0.9024   -2.4150   -0.8923 H         1 <0>         0.0641
     31 H10        -1.1828   -2.2188    2.1408 H         1 <0>         0.0630
     32 H11        -0.6578   -3.6602    1.2380 H         1 <0>         0.0654
     33 H12         1.2900   -2.4018    2.1162 H         1 <0>         0.0797
     34 H13         1.2730   -2.3923    0.3363 H         1 <0>         0.0762
     35 H14        -0.9103    0.0410    2.4552 H         1 <0>         0.4179
     36 H15        -0.3899    3.0830    4.3172 H         1 <0>         0.1783
     37 H16        -0.5547    5.4998    4.3678 H         1 <0>         0.1595
     38 H17         1.3409    6.9001    3.5814 H         1 <0>         0.1504
     39 H18         3.3832    5.8271    2.7594 H         1 <0>         0.1574
     40 H19         3.5308   -0.2990    2.7197 H         1 <0>         0.4203
     41 H20         4.8062    0.6560    2.1869 H         1 <0>         0.4131
@<TRIPOS>BOND
     1    1    2 1
     2    1   24 1
     3    1   25 1
     4    1   26 1
     5    2    3 1
     6    2    8 1
     7    2    4 1
     8    4    5 1
     9    4   27 1
    10    4   28 1
    11    5    6 1
    12    5   29 1
    13    5   30 1
    14    6    7 1
    15    6   31 1
    16    6   32 1
    17    7    8 1
    18    7   33 1
    19    7   34 1
    20    8    9 1
    21    8   10 1
    22   10   11 1
    23   10   35 1
    24   11   12 2
    25   11   13 2
    26   11   14 1
    27   14   18 1
    28   14   15 2
    29   15   16 1
    30   15   23 1
    31   16   17 2
    32   17   22 1
    33   17   18 1
    34   18   19 1
    35   19   20 2
    36   19   36 1
    37   20   21 1
    38   20   37 1
    39   21   22 2
    40   21   38 1
    41   22   39 1
    42   23   40 1
    43   23   41 1
@<TRIPOS>MOLECULE
ZINC62960031
   45    46     0     0     0
SMALL
USER_CHARGES

@<TRIPOS>ATOM
      1 C1         -1.2837    0.0272    0.0419 C.3       1 <0>        -0.1569
      2 C2          0.2283    0.2530   -0.0195 C.3       1 <0>        -0.1190
      3 C3          0.8138   -0.5312   -1.1955 C.3       1 <0>        -0.0552
      4 C4          2.3157   -0.2547   -1.2956 C.3       1 <0>        -0.1237
      5 C5          2.9942   -0.6614    0.0163 C.3       1 <0>         0.1157
      6 N1          2.6565   -2.0610    0.3093 N.pl3     1 <0>        -0.9952
      7 C6          1.2413   -2.4548    0.3396 C.3       1 <0>         0.1145
      8 C7          0.5825   -2.0280   -0.9759 C.3       1 <0>        -0.1244
      9 S1          3.8483   -3.1736    0.5993 S.o2      1 <0>         2.7019
     10 O1          3.2983   -4.4473    0.2921 O.2       1 <0>        -0.9561
     11 O2          5.0249   -2.6808   -0.0268 O.2       1 <0>        -0.9575
     12 C8          4.1590   -3.1641    2.3336 C.ar      1 <0>        -0.7945
     13 C9          5.1096   -2.3062    2.8713 C.ar      1 <0>         0.0632
     14 C10         5.3230   -2.3302    4.2375 C.ar      1 <0>        -0.2540
     15 C11         4.5822   -3.2082    5.0226 C.ar      1 <0>         0.4509
     16 N2          3.6846   -4.0108    4.4721 N.ar      1 <0>        -0.5367
     17 C12         3.4561   -4.0053    3.1723 C.ar      1 <0>         0.2552
     18 N3          4.7866   -3.2432    6.3970 N.pl3     1 <0>        -0.5607
     19 N4          4.0627   -4.1028    7.1736 N.3       1 <0>        -0.5982
     20 C13         0.1279   -0.0943   -2.4915 C.3       1 <0>        -0.1136
     21 C14         0.7994   -0.7830   -3.6812 C.3       1 <0>        -0.1594
     22 H1         -1.7444    0.4017   -0.8722 H         1 <0>         0.0565
     23 H2         -1.4881   -1.0389    0.1414 H         1 <0>         0.0572
     24 H3         -1.6958    0.5578    0.9002 H         1 <0>         0.0510
     25 H4          0.4319    1.3153   -0.1539 H         1 <0>         0.0616
     26 H5          0.6849   -0.0898    0.9091 H         1 <0>         0.0672
     27 H6          2.7380   -0.8323   -2.1179 H         1 <0>         0.0745
     28 H7          2.4788    0.8079   -1.4753 H         1 <0>         0.0760
     29 H8          4.0747   -0.5596   -0.0843 H         1 <0>         0.0923
     30 H9          2.6386   -0.0228    0.8249 H         1 <0>         0.0711
     31 H10         1.1653   -3.5363    0.4523 H         1 <0>         0.0935
     32 H11         0.7428   -1.9624    1.1746 H         1 <0>         0.0725
     33 H12        -0.4881   -2.2276   -0.9281 H         1 <0>         0.0793
     34 H13         1.0211   -2.5889   -1.8012 H         1 <0>         0.0725
     35 H14         5.6699   -1.6355    2.2367 H         1 <0>         0.1499
     36 H15         6.0548   -1.6767    4.6888 H         1 <0>         0.1411
     37 H16         2.7126   -4.6706    2.7590 H         1 <0>         0.1714
     38 H17         5.4434   -2.6573    6.8048 H         1 <0>         0.4154
     39 H18         4.1692   -5.0544    6.8555 H         1 <0>         0.3492
     40 H19         4.3193   -4.0156    8.1455 H         1 <0>         0.3587
     41 H20        -0.9252   -0.3732   -2.4571 H         1 <0>         0.0656
     42 H21         0.2140    0.9868   -2.6015 H         1 <0>         0.0617
     43 H22         1.8462   -0.4833   -3.7312 H         1 <0>         0.0572
     44 H23         0.7366   -1.8642   -3.5580 H         1 <0>         0.0566
     45 H24         0.2939   -0.4923   -4.6021 H         1 <0>         0.0518
@<TRIPOS>BOND
     1    1    2 1
     2    1   22 1
     3    1   23 1
     4    1   24 1
     5    2    3 1
     6    2   25 1
     7    2   26 1
     8    3    8 1
     9    3    4 1
    10    3   20 1
    11    4    5 1
    12    4   27 1
    13    4   28 1
    14    5    6 1
    15    5   29 1
    16    5   30 1
    17    6    7 1
    18    6    9 1
    19    7    8 1
    20    7   31 1
    21    7   32 1
    22    8   33 1
    23    8   34 1
    24    9   10 2
    25    9   11 2
    26    9   12 1
    27   12   17 ar
    28   12   13 ar
    29   13   14 ar
    30   13   35 1
    31   14   15 ar
    32   14   36 1
    33   15   16 ar
    34   15   18 1
    35   16   17 ar
    36   17   37 1
    37   18   19 1
    38   18   38 1
    39   19   39 1
    40   19   40 1
    41   20   21 1
    42   20   41 1
    43   20   42 1
    44   21   43 1
    45   21   44 1
    46   21   45 1
@<TRIPOS>MOLECULE
ZINC12299094
   56    57     0     0     0
SMALL
USER_CHARGES
2-[(2R)-1-(3-methylbut-2-enyl)-3-oxo-piperazin-2-yl]-N-[2-(2-oxo-1-piperidyl)ethyl]acetamide
@<TRIPOS>ATOM
      1 C1          1.4656    5.5445    3.3325 C.3       1 <0>        -0.1493
      2 C2          0.7151    6.0915    2.1456 C.2       1 <0>        -0.0327
      3 C3          0.3315    5.2868    1.1857 C.2       1 <0>        -0.2596
      4 C4          0.5358    3.8000    1.3221 C.3       1 <0>         0.0277
      5 C5         -1.7010    3.4396    2.1829 C.3       1 <0>        -0.0166
      6 C6         -3.0906    2.9553    1.7644 C.3       1 <0>         0.0855
      7 N1         -3.0257    1.5623    1.3316 N.am      1 <0>        -0.7108
      8 C7         -1.8828    0.9619    0.9834 C.2       1 <0>         0.5218
      9 O1         -1.9232   -0.1899    0.6057 O.2       1 <0>        -0.4985
     10 C8         -0.5506    1.6545    1.0401 C.3       1 <0>         0.0405
     11 H1         -0.0049    1.3178    1.9215 H         1 <0>         0.1751
     12 C9          0.2533    1.3129   -0.2161 C.3       1 <0>        -0.1665
     13 C10        -0.4506    1.8653   -1.4287 C.2       1 <0>         0.5118
     14 O2         -1.5326    2.4003   -1.3104 O.2       1 <0>        -0.5514
     15 N2          0.1222    1.7648   -2.6445 N.am      1 <0>        -0.6999
     16 C11        -0.5621    2.3019   -3.8233 C.3       1 <0>         0.1004
     17 C12         0.2966    2.0594   -5.0661 C.3       1 <0>         0.0936
     18 N3         -0.3877    2.5964   -6.2449 N.am      1 <0>        -0.6014
     19 C13        -1.2832    1.7101   -6.9778 C.3       1 <0>         0.1098
     20 C14        -2.2465    2.5240   -7.8458 C.3       1 <0>        -0.1379
     21 C15        -1.4294    3.5171   -8.6810 C.3       1 <0>        -0.1275
     22 C16        -0.8171    4.5546   -7.7368 C.3       1 <0>        -0.1355
     23 C17        -0.1482    3.8639   -6.5832 C.2       1 <0>         0.5205
     24 O3          0.6523    4.4925   -5.9237 O.2       1 <0>        -0.5513
     25 C18         0.4059    7.5641    2.0631 C.3       1 <0>        -0.1393
     26 H2          2.4186    5.1320    3.0012 H         1 <0>         0.0839
     27 H3          1.6460    6.3458    4.0491 H         1 <0>         0.0823
     28 H4          0.8751    4.7600    3.8058 H         1 <0>         0.0751
     29 H5         -0.1311    5.6890    0.2965 H         1 <0>         0.1348
     30 H6          0.9127    3.5750    2.3198 H         1 <0>         0.1362
     31 H7          1.2561    3.4623    0.5769 H         1 <0>         0.1301
     32 H8         -1.7205    4.5187    2.3350 H         1 <0>         0.1513
     33 H9         -1.4049    2.9453    3.1081 H         1 <0>         0.1377
     34 H10        -3.4566    3.5723    0.9438 H         1 <0>         0.0987
     35 H11        -3.7712    3.0394    2.6116 H         1 <0>         0.1257
     36 H12        -3.8482    1.0496    1.2954 H         1 <0>         0.4251
     37 H13         0.3405    0.2303   -0.3084 H         1 <0>         0.1579
     38 H14         1.2479    1.7525   -0.1417 H         1 <0>         0.1328
     39 H15         0.9876    1.3369   -2.7391 H         1 <0>         0.4126
     40 H16        -1.5241    1.8035   -3.9434 H         1 <0>         0.0786
     41 H17        -0.7211    3.3725   -3.6948 H         1 <0>         0.0805
     42 H18         1.2585    2.5577   -4.9460 H         1 <0>         0.0978
     43 H19         0.4556    0.9887   -5.1946 H         1 <0>         0.0878
     44 H20        -0.6944    1.0468   -7.6115 H         1 <0>         0.0729
     45 H21        -1.8567    1.1117   -6.2699 H         1 <0>         0.0770
     46 H22        -2.9455    3.0685   -7.2109 H         1 <0>         0.0740
     47 H23        -2.7955    1.8543   -8.5077 H         1 <0>         0.0906
     48 H24        -2.0802    4.0143   -9.4003 H         1 <0>         0.0827
     49 H25        -0.6360    2.9873   -9.2083 H         1 <0>         0.0738
     50 H26        -1.6027    5.2098   -7.3603 H         1 <0>         0.1025
     51 H27        -0.0811    5.1471   -8.2802 H         1 <0>         0.1049
     52 H28        -0.1378    7.7701    1.1411 H         1 <0>         0.0719
     53 H29        -0.2045    7.8557    2.9178 H         1 <0>         0.0858
     54 H30         1.3365    8.1317    2.0706 H         1 <0>         0.0843
     55 N4         -0.7567    3.1140    1.0954 N.4       1 <0>        -0.3944
     56 H31        -1.1512    3.4314    0.2022 H         1 <0>         0.4366
@<TRIPOS>BOND
     1    1    2 1
     2    1   26 1
     3    1   27 1
     4    1   28 1
     5    2    3 2
     6    2   25 1
     7    3    4 1
     8    3   29 1
     9    4   30 1
    10    4   31 1
    11    4   55 1
    12    5    6 1
    13    5   32 1
    14    5   33 1
    15    5   55 1
    16    6    7 1
    17    6   34 1
    18    6   35 1
    19    7    8 am
    20    7   36 1
    21    8    9 2
    22    8   10 1
    23   10   11 1
    24   10   12 1
    25   10   55 1
    26   12   13 1
    27   12   37 1
    28   12   38 1
    29   13   14 2
    30   13   15 am
    31   15   16 1
    32   15   39 1
    33   16   17 1
    34   16   40 1
    35   16   41 1
    36   17   18 1
    37   17   42 1
    38   17   43 1
    39   18   23 am
    40   18   19 1
    41   19   20 1
    42   19   44 1
    43   19   45 1
    44   20   21 1
    45   20   46 1
    46   20   47 1
    47   21   22 1
    48   21   48 1
    49   21   49 1
    50   22   23 1
    51   22   50 1
    52   22   51 1
    53   23   24 2
    54   25   52 1
    55   25   53 1
    56   25   54 1
    57   55   56 1
@<TRIPOS>MOLECULE
ZINC39736557
   45    47     0     0     0
SMALL
USER_CHARGES

@<TRIPOS>ATOM
      1 C1         -0.0167    1.3784    0.0096 C.ar      1 <0>        -0.1530
      2 C2          1.1698    2.0883    0.0021 C.ar      1 <0>        -0.0778
      3 C3          2.3773    1.4175   -0.0134 C.ar      1 <0>        -0.1452
      4 C4          2.3989    0.0304   -0.0210 C.ar      1 <0>         0.1227
      5 C5          1.2070   -0.6796   -0.0130 C.ar      1 <0>        -0.2112
      6 C6          0.0021   -0.0041    0.0020 C.ar      1 <0>        -0.0799
      7 O1          3.5855   -0.6319   -0.0368 O.3       1 <0>        -0.2910
      8 C7          3.5315   -2.0598   -0.0438 C.3       1 <0>         0.0440
      9 C8          4.9322   -2.6155   -0.0612 C.2       1 <0>         0.5246
     10 O2          5.8831   -1.8627   -0.0670 O.2       1 <0>        -0.5041
     11 N1          5.1282   -3.9489   -0.0703 N.am      1 <0>        -0.7235
     12 C9          6.4899   -4.4890   -0.0872 C.3       1 <0>         0.1111
     13 C10         6.4329   -5.9949   -0.0947 C.2       1 <0>         0.5308
     14 O3          5.3607   -6.5611   -0.0866 O.2       1 <0>        -0.4718
     15 N2          7.5737   -6.7124   -0.1102 N.am      1 <0>        -0.5554
     16 N3          7.5207   -8.1123   -0.1171 N.2       1 <0>        -0.1308
     17 C11         8.6290   -8.8093   -0.1323 C.2       1 <0>         0.0406
     18 C12         8.5760  -10.2105   -0.1392 C.2       1 <0>         0.1264
     19 C13         9.6527  -11.0938   -0.1493 C.ar      1 <0>        -0.1438
     20 C14        11.0511  -10.8943   -0.1560 C.ar      1 <0>        -0.0260
     21 C15        11.8836  -11.9655   -0.1663 C.ar      1 <0>        -0.1389
     22 C16        11.3933  -13.2747   -0.1705 C.ar      1 <0>         0.0420
     23 C17        10.0653  -13.5412   -0.1645 C.ar      1 <0>        -0.1999
     24 C18         9.1306  -12.4717   -0.1537 C.ar      1 <0>         0.3146
     25 N4          7.8143  -12.4652   -0.1468 N.pl3     1 <0>        -0.5881
     26 C19         7.3373  -11.0789   -0.1305 C.3       1 <0>         0.0708
     27 H1         -0.9596    1.9047    0.0260 H         1 <0>         0.1270
     28 H2          1.1525    3.1682    0.0080 H         1 <0>         0.1331
     29 H3          3.3038    1.9724   -0.0200 H         1 <0>         0.1336
     30 H4          1.2211   -1.7595   -0.0193 H         1 <0>         0.1265
     31 H5         -0.9260   -0.5563    0.0082 H         1 <0>         0.1271
     32 H6          3.0134   -2.4083    0.8497 H         1 <0>         0.0983
     33 H7          2.9951   -2.3988   -0.9302 H         1 <0>         0.0983
     34 H8          4.3676   -4.5509   -0.0657 H         1 <0>         0.4158
     35 H9          7.0079   -4.1406   -0.9807 H         1 <0>         0.1166
     36 H10         7.0262   -4.1501    0.7991 H         1 <0>         0.1166
     37 H11         8.4314   -6.2594   -0.1166 H         1 <0>         0.4108
     38 H12         9.5840   -8.3050   -0.1394 H         1 <0>         0.1615
     39 H13        11.4559   -9.8930   -0.1533 H         1 <0>         0.1572
     40 H14        12.9512  -11.8028   -0.1717 H         1 <0>         0.1569
     41 H15        12.0934  -14.0970   -0.1791 H         1 <0>         0.1614
     42 H16         9.7181  -14.5639   -0.1676 H         1 <0>         0.1613
     43 H17         6.7535  -10.8911    0.7706 H         1 <0>         0.1783
     44 H18         6.7344  -10.8815   -1.0169 H         1 <0>         0.1775
     45 H19         7.2490  -13.2534   -0.1482 H         1 <0>         0.4553
@<TRIPOS>BOND
     1    1    6 ar
     2    1    2 ar
     3    1   27 1
     4    2    3 ar
     5    2   28 1
     6    3    4 ar
     7    3   29 1
     8    4    5 ar
     9    4    7 1
    10    5    6 ar
    11    5   30 1
    12    6   31 1
    13    7    8 1
    14    8    9 1
    15    8   32 1
    16    8   33 1
    17    9   10 2
    18    9   11 am
    19   11   12 1
    20   11   34 1
    21   12   13 1
    22   12   35 1
    23   12   36 1
    24   13   14 2
    25   13   15 am
    26   15   16 1
    27   15   37 1
    28   16   17 2
    29   17   18 1
    30   17   38 1
    31   18   26 1
    32   18   19 2
    33   19   24 ar
    34   19   20 ar
    35   20   21 ar
    36   20   39 1
    37   21   22 ar
    38   21   40 1
    39   22   23 ar
    40   22   41 1
    41   23   24 ar
    42   23   42 1
    43   24   25 2
    44   25   26 1
    45   25   45 1
    46   26   43 1
    47   26   44 1
@<TRIPOS>MOLECULE
ZINC54173052
   52    54     0     0     0
SMALL
USER_CHARGES

@<TRIPOS>ATOM
      1 C1         -0.0157    1.3058    0.0092 C.2       1 <0>        -0.1524
      2 C2          0.0021   -0.0041    0.0020 C.2       1 <0>        -0.1908
      3 C3         -1.2926   -0.7753    0.0102 C.3       1 <0>         0.1482
      4 N1         -1.3176   -1.6997   -1.1260 N.am      1 <0>        -0.7233
      5 C4         -2.3857   -2.4981   -1.3218 C.2       1 <0>         0.5117
      6 O1         -3.3261   -2.4512   -0.5574 O.2       1 <0>        -0.5253
      7 C5         -2.4113   -3.4490   -2.4906 C.3       1 <0>         0.0351
      8 N2         -3.6734   -4.2008   -2.4826 N.3       1 <0>        -0.5224
      9 C6         -4.8169   -3.3129   -2.7358 C.3       1 <0>         0.0198
     10 C7         -6.1136   -4.1219   -2.6602 C.3       1 <0>         0.0034
     11 N3         -6.0777   -5.1992   -3.6581 N.4       1 <0>        -0.3895
     12 C8         -4.9451   -6.0913   -3.3775 C.3       1 <0>        -0.0078
     13 C9         -3.6387   -5.2986   -3.4591 C.3       1 <0>         0.0272
     14 C10        -7.3302   -5.9644   -3.5974 C.3       1 <0>         0.0092
     15 C11        -7.3461   -7.0062   -4.7179 C.3       1 <0>        -0.1009
     16 C12        -8.6310   -7.7912   -4.6556 C.2       1 <0>         0.3852
     17 N4         -8.8307   -8.7740   -5.5721 N.am      1 <0>        -0.6520
     18 H1         -8.1521   -8.9515   -6.2420 H         1 <0>         0.4202
     19 C13        -9.9678   -9.5080   -5.5585 C.2       1 <0>         0.5516
     20 O2        -10.1595  -10.3921   -6.3730 O.2       1 <0>        -0.4912
     21 C14       -10.9623   -9.1963   -4.5212 C.ar      1 <0>        -0.1890
     22 C15       -12.1654   -9.8920   -4.4207 C.ar      1 <0>        -0.0414
     23 C16       -13.0619   -9.5580   -3.4294 C.ar      1 <0>        -0.1219
     24 C17       -12.7756   -8.5364   -2.5332 C.ar      1 <0>        -0.0693
     25 C18       -11.5930   -7.8365   -2.6157 C.ar      1 <0>        -0.1032
     26 C19       -10.6679   -8.1568   -3.6115 C.ar      1 <0>         0.1389
     27 N5         -9.4881   -7.4970   -3.7257 N.2       1 <0>        -0.5133
     28 H2          0.9122    1.8585    0.0033 H         1 <0>         0.1080
     29 H3         -0.9582    1.8330    0.0166 H         1 <0>         0.1015
     30 H4          0.9446   -0.5313   -0.0098 H         1 <0>         0.1179
     31 H5         -1.3737   -1.3393    0.9394 H         1 <0>         0.0799
     32 H6         -2.1295   -0.0812   -0.0676 H         1 <0>         0.0742
     33 H7         -0.5655   -1.7372   -1.7373 H         1 <0>         0.4045
     34 H8         -2.3303   -2.8850   -3.4198 H         1 <0>         0.0774
     35 H9         -1.5745   -4.1431   -2.4128 H         1 <0>         0.1186
     36 H10        -4.8370   -2.5227   -1.9853 H         1 <0>         0.1402
     37 H11        -4.7215   -2.8707   -3.7275 H         1 <0>         0.0573
     38 H12        -6.2155   -4.5527   -1.6641 H         1 <0>         0.1421
     39 H13        -6.9621   -3.4681   -2.8617 H         1 <0>         0.1382
     40 H14        -5.0530   -6.5120   -2.3778 H         1 <0>         0.1421
     41 H15        -4.9273   -6.8975   -4.1109 H         1 <0>         0.1361
     42 H16        -3.5238   -4.8892   -4.4627 H         1 <0>         0.0628
     43 H17        -2.7992   -5.9572   -3.2363 H         1 <0>         0.1253
     44 H18        -7.4026   -6.4670   -2.6329 H         1 <0>         0.1454
     45 H19        -8.1758   -5.2874   -3.7187 H         1 <0>         0.1456
     46 H20        -7.2738   -6.5036   -5.6824 H         1 <0>         0.1202
     47 H21        -6.5005   -7.6831   -4.5966 H         1 <0>         0.1193
     48 H22       -12.3936  -10.6871   -5.1151 H         1 <0>         0.1434
     49 H23       -13.9955  -10.0949   -3.3488 H         1 <0>         0.1412
     50 H24       -13.4898   -8.2876   -1.7622 H         1 <0>         0.1412
     51 H25       -11.3813   -7.0441   -1.9131 H         1 <0>         0.1419
     52 H26        -5.9717   -4.8008   -4.5790 H         1 <0>         0.4190
@<TRIPOS>BOND
     1    1    2 2
     2    1   28 1
     3    1   29 1
     4    2    3 1
     5    2   30 1
     6    3    4 1
     7    3   31 1
     8    3   32 1
     9    4    5 am
    10    4   33 1
    11    5    6 2
    12    5    7 1
    13    7    8 1
    14    7   34 1
    15    7   35 1
    16    8   13 1
    17    8    9 1
    18    9   10 1
    19    9   36 1
    20    9   37 1
    21   10   11 1
    22   10   38 1
    23   10   39 1
    24   11   12 1
    25   11   14 1
    26   11   52 1
    27   12   13 1
    28   12   40 1
    29   12   41 1
    30   13   42 1
    31   13   43 1
    32   14   15 1
    33   14   44 1
    34   14   45 1
    35   15   16 1
    36   15   46 1
    37   15   47 1
    38   16   27 2
    39   16   17 1
    40   17   18 1
    41   17   19 am
    42   19   20 2
    43   19   21 1
    44   21   26 ar
    45   21   22 ar
    46   22   23 ar
    47   22   48 1
    48   23   24 ar
    49   23   49 1
    50   24   25 ar
    51   24   50 1
    52   25   26 ar
    53   25   51 1
    54   26   27 1
@<TRIPOS>MOLECULE
ZINC63778183
   44    46     0     0     0
SMALL
USER_CHARGES

@<TRIPOS>ATOM
      1 C1         -0.0184    1.5028    0.0103 C.3       1 <0>        -0.0660
      2 C2          0.0021   -0.0041    0.0020 C.2       1 <0>        -0.1938
      3 C3         -1.0302   -0.8829    0.0016 C.2       1 <0>         0.0483
      4 N1         -0.7249   -2.1672   -0.0067 N.2       1 <0>        -0.5106
      5 C4          0.5280   -2.5681   -0.0141 C.2       1 <0>         0.2442
      6 S1          1.3924   -1.1240   -0.0179 S.3       1 <0>         0.1284
      7 N2          1.0187   -3.8686   -0.0226 N.am      1 <0>        -0.6132
      8 C5          0.1646   -4.9111   -0.0244 C.2       1 <0>         0.5078
      9 O1         -1.0322   -4.7146   -0.0186 O.2       1 <0>        -0.4658
     10 C6          0.6966   -6.3211   -0.0336 C.3       1 <0>         0.1311
     11 H1          1.3092   -6.4840    0.8531 H         1 <0>         0.1303
     12 C7          1.5464   -6.5373   -1.2873 C.3       1 <0>        -0.1678
     13 N3         -0.4233   -7.2656   -0.0338 N.am      1 <0>        -0.6919
     14 C8         -0.2544   -8.5111    0.4526 C.2       1 <0>         0.5290
     15 O2          0.8246   -8.8500    0.8904 O.2       1 <0>        -0.4943
     16 C9         -1.4064   -9.4827    0.4523 C.3       1 <0>         0.0719
     17 H2         -2.3273   -8.9730    0.7355 H         1 <0>         0.1981
     18 C10        -1.5578  -10.1113   -0.9147 C.2       1 <0>         0.0610
     19 C11        -1.3827  -11.4382   -0.7394 C.ar      1 <0>        -0.1508
     20 C12        -1.1212  -11.7101    0.6924 C.ar      1 <0>         0.3530
     21 N4         -1.1354  -10.5886    1.3777 N.pl3     1 <0>        -0.5729
     22 C13        -0.9083  -13.0556    1.0879 C.ar      1 <0>        -0.2456
     23 C14        -0.9451  -14.0541    0.1756 C.ar      1 <0>         0.1056
     24 C15        -1.1887  -13.8302   -1.1813 C.ar      1 <0>        -0.2804
     25 C16        -1.4065  -12.5788   -1.6701 C.ar      1 <0>         0.2499
     26 O3         -1.6421  -12.3860   -2.9907 O.3       1 <0>        -0.2868
     27 C17        -1.6480  -13.5463   -3.8248 C.3       1 <0>         0.0147
     28 H3          1.0042    1.8801    0.0026 H         1 <0>         0.0766
     29 H4         -0.5455    1.8639   -0.8728 H         1 <0>         0.0866
     30 H5         -0.5286    1.8543    0.9071 H         1 <0>         0.0865
     31 H6         -2.0567   -0.5472    0.0081 H         1 <0>         0.1782
     32 H7          1.9759   -4.0258   -0.0272 H         1 <0>         0.4294
     33 H8          0.9339   -6.3744   -2.1741 H         1 <0>         0.0746
     34 H9          2.3796   -5.8346   -1.2872 H         1 <0>         0.0844
     35 H10         1.9312   -7.5571   -1.2940 H         1 <0>         0.0815
     36 H11        -1.2863   -6.9945   -0.3840 H         1 <0>         0.4207
     37 H12        -1.7649   -9.6014   -1.8440 H         1 <0>         0.2179
     38 H13        -0.7149  -13.2848    2.1255 H         1 <0>         0.1643
     39 H14        -0.7787  -15.0672    0.5107 H         1 <0>         0.1646
     40 H15        -1.2048  -14.6707   -1.8593 H         1 <0>         0.1622
     41 H16        -2.4236  -14.2332   -3.4862 H         1 <0>         0.0773
     42 H17        -1.8478  -13.2520   -4.8552 H         1 <0>         0.1236
     43 H18        -0.6771  -14.0386   -3.7693 H         1 <0>         0.0770
     44 H19        -0.9904  -10.5053    2.3332 H         1 <0>         0.4614
@<TRIPOS>BOND
     1    1    2 1
     2    1   28 1
     3    1   29 1
     4    1   30 1
     5    2    6 1
     6    2    3 2
     7    3    4 1
     8    3   31 1
     9    4    5 2
    10    5    6 1
    11    5    7 1
    12    7    8 am
    13    7   32 1
    14    8    9 2
    15    8   10 1
    16   10   11 1
    17   10   12 1
    18   10   13 1
    19   12   33 1
    20   12   34 1
    21   12   35 1
    22   13   14 am
    23   13   36 1
    24   14   15 2
    25   14   16 1
    26   16   17 1
    27   16   21 1
    28   16   18 1
    29   18   19 2
    30   18   37 1
    31   19   25 ar
    32   19   20 ar
    33   20   21 2
    34   20   22 ar
    35   21   44 1
    36   22   23 ar
    37   22   38 1
    38   23   24 ar
    39   23   39 1
    40   24   25 ar
    41   24   40 1
    42   25   26 1
    43   26   27 1
    44   27   41 1
    45   27   42 1
    46   27   43 1
@<TRIPOS>MOLECULE
ZINC66663229
   55    57     0     0     0
SMALL
USER_CHARGES

@<TRIPOS>ATOM
      1 C1         -0.0187    1.5258    0.0104 C.3       1 <0>        -0.1905
      2 C2          0.0021   -0.0041    0.0020 C.3       1 <0>        -0.0103
      3 N1         -1.3761   -0.5125    0.0124 N.4       1 <0>        -0.3871
      4 C3         -2.0510   -0.1181   -1.2299 C.3       1 <0>        -0.0067
      5 C4         -3.5107   -0.5753   -1.1892 C.3       1 <0>        -0.1569
      6 C5         -3.5589   -2.0988   -1.0417 C.3       1 <0>         0.1623
      7 C6         -2.7883   -2.5045    0.2179 C.3       1 <0>        -0.1577
      8 C7         -1.3553   -1.9759    0.1251 C.3       1 <0>        -0.0014
      9 N2         -4.9523   -2.5359   -0.9257 N.pl3     1 <0>        -0.3988
     10 C8         -5.5918   -3.3865   -1.7606 C.2       1 <0>         0.3071
     11 C9         -6.8658   -3.5305   -1.3036 C.2       1 <0>        -0.2665
     12 C10        -7.0007   -2.7427   -0.1571 C.2       1 <0>         0.0816
     13 N3         -5.8562   -2.1518    0.0729 N.2       1 <0>        -0.2939
     14 N4         -5.0452   -4.0036   -2.8856 N.am      1 <0>        -0.6546
     15 C11        -5.8001   -4.8333   -3.6327 C.2       1 <0>         0.5248
     16 O1         -6.9548   -5.0434   -3.3267 O.2       1 <0>        -0.4831
     17 C12        -5.2095   -5.5000   -4.8483 C.3       1 <0>        -0.1462
     18 C13        -6.2689   -6.3827   -5.5112 C.3       1 <0>         0.1314
     19 N5         -5.6948   -7.0308   -6.6930 N.am      1 <0>        -0.7337
     20 C14        -6.4497   -7.8605   -7.4401 C.2       1 <0>         0.5446
     21 O2         -7.6043   -8.0706   -7.1340 O.2       1 <0>        -0.5285
     22 C15        -5.8591   -8.5273   -8.6557 C.3       1 <0>        -0.1970
     23 H1         -5.1279   -7.9364   -9.2073 H         1 <0>         0.1242
     24 C16        -5.6446  -10.0410   -8.5970 C.3       1 <0>        -0.1479
     25 C17        -6.7665   -9.4595   -9.4610 C.3       1 <0>        -0.1180
     26 H2         -7.7906   -9.5906   -9.1115 H         1 <0>         0.1188
     27 C18        -6.5777   -9.4914  -10.9790 C.3       1 <0>        -0.1265
     28 H3          1.0039    1.9031    0.0027 H         1 <0>         0.1078
     29 H4         -0.5459    1.8868   -0.8726 H         1 <0>         0.0804
     30 H5         -0.5289    1.8773    0.9072 H         1 <0>         0.0817
     31 H6          0.5123   -0.3556   -0.8948 H         1 <0>         0.1297
     32 H7          0.5293   -0.3651    0.8851 H         1 <0>         0.1326
     33 H8         -2.0130    0.9661   -1.3351 H         1 <0>         0.1407
     34 H9         -1.5489   -0.5823   -2.0788 H         1 <0>         0.1316
     35 H10        -4.0138   -0.1114   -0.3408 H         1 <0>         0.1069
     36 H11        -4.0095   -0.2831   -2.1132 H         1 <0>         0.1170
     37 H12        -3.1012   -2.5641   -1.9147 H         1 <0>         0.1036
     38 H13        -3.2764   -2.0807    1.0955 H         1 <0>         0.1071
     39 H14        -2.7707   -3.5913    0.2997 H         1 <0>         0.1173
     40 H15        -0.8680   -2.4005   -0.7527 H         1 <0>         0.1314
     41 H16        -0.8038   -2.2632    1.0203 H         1 <0>         0.1394
     42 H17        -7.6355   -4.1439   -1.7482 H         1 <0>         0.1785
     43 H18        -7.8955   -2.6421    0.4392 H         1 <0>         0.1939
     44 H19        -4.1217   -3.8355   -3.1304 H         1 <0>         0.4074
     45 H20        -4.8768   -4.7392   -5.5544 H         1 <0>         0.1089
     46 H21        -4.3602   -6.1143   -4.5492 H         1 <0>         0.1089
     47 H22        -6.6016   -7.1435   -4.8051 H         1 <0>         0.0806
     48 H23        -7.1182   -5.7684   -5.8103 H         1 <0>         0.0808
     49 H24        -4.7714   -6.8628   -6.9377 H         1 <0>         0.4010
     50 H25        -4.7725  -10.4460   -9.1104 H         1 <0>         0.1070
     51 H26        -5.9307  -10.5547   -7.6791 H         1 <0>         0.0999
     52 H27        -5.5608   -9.8070  -11.2121 H         1 <0>         0.0591
     53 H28        -7.2859  -10.1937  -11.4185 H         1 <0>         0.0684
     54 H29        -6.7519   -8.4960  -11.3877 H         1 <0>         0.0629
     55 H30        -1.8714   -0.1226    0.8003 H         1 <0>         0.4262
@<TRIPOS>BOND
     1    1    2 1
     2    1   28 1
     3    1   29 1
     4    1   30 1
     5    2    3 1
     6    2   31 1
     7    2   32 1
     8    3    8 1
     9    3    4 1
    10    3   55 1
    11    4    5 1
    12    4   33 1
    13    4   34 1
    14    5    6 1
    15    5   35 1
    16    5   36 1
    17    6    7 1
    18    6    9 1
    19    6   37 1
    20    7    8 1
    21    7   38 1
    22    7   39 1
    23    8   40 1
    24    8   41 1
    25    9   13 1
    26    9   10 1
    27   10   11 2
    28   10   14 1
    29   11   12 1
    30   11   42 1
    31   12   13 2
    32   12   43 1
    33   14   15 am
    34   14   44 1
    35   15   16 2
    36   15   17 1
    37   17   18 1
    38   17   45 1
    39   17   46 1
    40   18   19 1
    41   18   47 1
    42   18   48 1
    43   19   20 am
    44   19   49 1
    45   20   21 2
    46   20   22 1
    47   22   23 1
    48   22   25 1
    49   22   24 1
    50   24   25 1
    51   24   50 1
    52   24   51 1
    53   25   26 1
    54   25   27 1
    55   27   52 1
    56   27   53 1
    57   27   54 1
@<TRIPOS>MOLECULE
ZINC22022870
   32    33     0     0     0
SMALL
USER_CHARGES

@<TRIPOS>ATOM
      1 C1         -0.4728    1.0409   -0.0926 C.ar      1 <0>        -0.0872
      2 C2          0.6310    1.8693   -0.1720 C.ar      1 <0>        -0.0891
      3 C3          1.9098    1.3353   -0.1998 C.ar      1 <0>        -0.0388
      4 C4          2.0817   -0.0387   -0.1472 C.ar      1 <0>        -0.1502
      5 C5          0.9563   -0.8833   -0.0657 C.ar      1 <0>        -0.1468
      6 C6         -0.3161   -0.3353   -0.0393 C.ar      1 <0>        -0.0385
      7 C7          1.4874   -2.2622   -0.0276 C.2       1 <0>         0.5772
      8 O1          0.8227   -3.2762    0.0423 O.2       1 <0>        -0.4501
      9 N1          2.8303   -2.2060   -0.0838 N.am      1 <0>        -0.5783
     10 C8          3.2587   -0.9328   -0.1558 C.2       1 <0>         0.5802
     11 O2          4.4184   -0.5775   -0.2179 O.2       1 <0>        -0.4614
     12 C9          3.7104   -3.3771   -0.0682 C.3       1 <0>         0.1541
     13 C10         3.9554   -3.8402   -1.4812 C.2       1 <0>        -0.1959
     14 C11         5.1905   -3.9850   -1.9234 C.2       1 <0>         0.2276
     15 N2          6.2621   -3.8360   -1.0522 N.pl3     1 <0>        -0.5327
     16 N3          7.5740   -3.8730   -1.5426 N.am      1 <0>        -0.5528
     17 C12         8.6098   -3.6301   -0.7152 C.2       1 <0>         0.5089
     18 O3          9.7455   -3.6621   -1.1397 O.2       1 <0>        -0.5015
     19 N4          5.4203   -4.2883   -3.2687 N.4       1 <0>        -0.5722
     20 H1         -1.4639    1.4692   -0.0675 H         1 <0>         0.1487
     21 H2          0.4960    2.9401   -0.2130 H         1 <0>         0.1483
     22 H3          2.7685    1.9872   -0.2626 H         1 <0>         0.1447
     23 H4         -1.1820   -0.9776    0.0230 H         1 <0>         0.1465
     24 H5          4.6598   -3.1119    0.3970 H         1 <0>         0.0989
     25 H6          3.2386   -4.1786    0.5002 H         1 <0>         0.1307
     26 H7          3.1203   -4.0537   -2.1319 H         1 <0>         0.1649
     27 H8          7.7368   -4.0734   -2.4776 H         1 <0>         0.4037
     28 H9          8.4286   -3.4069    0.3258 H         1 <0>         0.1558
     29 H10         5.5116   -3.4326   -3.7955 H         1 <0>         0.4513
     30 H11         6.2695   -4.8267   -3.3518 H         1 <0>         0.4381
     31 H12         6.1022   -3.7063   -0.1043 H         1 <0>         0.4566
     32 H13         4.6455   -4.8244   -3.6296 H         1 <0>         0.4593
@<TRIPOS>BOND
     1    1    6 ar
     2    1    2 ar
     3    1   20 1
     4    2    3 ar
     5    2   21 1
     6    3    4 ar
     7    3   22 1
     8    4   10 1
     9    4    5 ar
    10    5    6 ar
    11    5    7 1
    12    6   23 1
    13    7    8 2
    14    7    9 am
    15    9   10 am
    16    9   12 1
    17   10   11 2
    18   12   13 1
    19   12   24 1
    20   12   25 1
    21   13   14 2
    22   13   26 1
    23   14   15 1
    24   14   19 1
    25   15   16 1
    26   15   31 1
    27   16   17 am
    28   16   27 1
    29   17   18 2
    30   17   28 1
    31   19   29 1
    32   19   30 1
    33   19   32 1
@<TRIPOS>MOLECULE
ZINC37812538
   44    46     0     0     0
SMALL
USER_CHARGES

@<TRIPOS>ATOM
      1 C1         -0.0187    1.5258    0.0104 C.3       1 <0>        -0.1451
      2 C2          1.3165    0.7789   -0.0063 C.3       1 <0>        -0.1501
      3 C3          0.0021   -0.0041    0.0020 C.3       1 <0>        -0.2028
      4 C4         -0.4023   -0.6984   -1.2729 C.2       1 <0>         0.5474
      5 O1         -0.7279   -0.0458   -2.2419 O.2       1 <0>        -0.5321
      6 N1         -0.4023   -2.0447   -1.3362 N.am      1 <0>        -0.7283
      7 C5         -0.7954   -2.7197   -2.5756 C.3       1 <0>         0.1438
      8 C6         -2.3186   -2.8625   -2.6173 C.3       1 <0>        -0.1470
      9 C7         -2.7284   -3.5375   -3.9300 C.3       1 <0>         0.1108
     10 N2         -1.9996   -4.8070   -4.0567 N.am      1 <0>        -0.5839
     11 C8         -0.5350   -4.7954   -3.9407 C.3       1 <0>         0.0976
     12 C9         -0.1498   -4.1063   -2.6279 C.3       1 <0>        -0.1456
     13 C10        -2.6621   -5.9603   -4.2746 C.2       1 <0>         0.5080
     14 O2         -3.8713   -5.9567   -4.3680 O.2       1 <0>        -0.5242
     15 C11        -1.9003   -7.2543   -4.4022 C.3       1 <0>         0.0054
     16 H1         -1.0927   -7.2974   -3.6715 H         1 <0>         0.1694
     17 C12        -1.3469   -7.4236   -5.8395 C.3       1 <0>        -0.1297
     18 C13        -1.1846   -8.9555   -5.9691 C.3       1 <0>         0.0918
     19 H2         -1.4756   -9.2837   -6.9670 H         1 <0>         0.1107
     20 C14        -2.1333   -9.5514   -4.9126 C.3       1 <0>        -0.0408
     21 N3         -2.8116   -8.4167   -4.2457 N.4       1 <0>        -0.4998
     22 O3          0.1657   -9.3360   -5.6970 O.3       1 <0>        -0.5466
     23 H3         -0.3072    2.0201    0.9381 H         1 <0>         0.1068
     24 H4         -0.3248    2.0300   -0.9061 H         1 <0>         0.1094
     25 H5          1.8888    0.7918   -0.9339 H         1 <0>         0.1001
     26 H6          1.9064    0.7818    0.9103 H         1 <0>         0.1078
     27 H7         -0.2728   -0.5162    0.9241 H         1 <0>         0.1247
     28 H8         -0.1419   -2.5667   -0.5612 H         1 <0>         0.4032
     29 H9         -0.4625   -2.1316   -3.4308 H         1 <0>         0.0953
     30 H10        -2.6501   -3.4714   -1.7762 H         1 <0>         0.0723
     31 H11        -2.7783   -1.8761   -2.5565 H         1 <0>         0.0928
     32 H12        -3.8010   -3.7311   -3.9220 H         1 <0>         0.1051
     33 H13        -2.4786   -2.8875   -4.7686 H         1 <0>         0.0880
     34 H14        -0.1604   -5.8190   -3.9398 H         1 <0>         0.0913
     35 H15        -0.1063   -4.2480   -4.7802 H         1 <0>         0.0951
     36 H16         0.9342   -4.0051   -2.5745 H         1 <0>         0.0961
     37 H17        -0.5017   -4.7035   -1.7867 H         1 <0>         0.0775
     38 H18        -2.0593   -7.0477   -6.5738 H         1 <0>         0.1196
     39 H19        -0.3840   -6.9235   -5.9434 H         1 <0>         0.1364
     40 H20        -2.8695  -10.1943   -5.3951 H         1 <0>         0.1473
     41 H21        -1.5620  -10.1214   -4.1799 H         1 <0>         0.1439
     42 H22        -2.9529   -8.6188   -3.2673 H         1 <0>         0.4375
     43 H23         0.3273  -10.2871   -5.7634 H         1 <0>         0.4011
     44 H24        -3.6954   -8.2289   -4.6947 H         1 <0>         0.4399
@<TRIPOS>BOND
     1    1    3 1
     2    1    2 1
     3    1   23 1
     4    1   24 1
     5    2    3 1
     6    2   25 1
     7    2   26 1
     8    3    4 1
     9    3   27 1
    10    4    5 2
    11    4    6 am
    12    6    7 1
    13    6   28 1
    14    7   12 1
    15    7    8 1
    16    7   29 1
    17    8    9 1
    18    8   30 1
    19    8   31 1
    20    9   10 1
    21    9   32 1
    22    9   33 1
    23   10   11 1
    24   10   13 am
    25   11   12 1
    26   11   34 1
    27   11   35 1
    28   12   36 1
    29   12   37 1
    30   13   14 2
    31   13   15 1
    32   15   16 1
    33   15   21 1
    34   15   17 1
    35   17   18 1
    36   17   38 1
    37   17   39 1
    38   18   19 1
    39   18   20 1
    40   18   22 1
    41   20   21 1
    42   20   40 1
    43   20   41 1
    44   21   42 1
    45   21   44 1
    46   22   43 1
@<TRIPOS>MOLECULE
ZINC41716944
   43    44     0     0     0
SMALL
USER_CHARGES

@<TRIPOS>ATOM
      1 C1          0.1869   -1.0355   -1.1506 C.3       1 <0>        -0.1804
      2 C2         -0.0012   -0.0348   -0.0085 C.3       1 <0>         0.0867
      3 H1          0.3988    0.9347   -0.3054 H         1 <0>         0.1472
      4 C3          0.7286   -0.5261    1.2151 C.ar      1 <0>        -0.1708
      5 C4          0.1587   -1.5008    2.0134 C.ar      1 <0>        -0.0995
      6 C5          0.8250   -1.9531    3.1354 C.ar      1 <0>        -0.1102
      7 C6          2.0685   -1.4280    3.4615 C.ar      1 <0>         0.1976
      8 C7          2.6381   -0.4493    2.6578 C.ar      1 <0>        -0.1379
      9 C8          1.9693   -0.0052    1.5339 C.ar      1 <0>        -0.0634
     10 N1          2.7460   -1.8839    4.5981 N.am      1 <0>        -0.6869
     11 C9          2.0543   -2.2251    5.7033 C.2       1 <0>         0.7115
     12 O1          0.8386   -2.2169    5.6864 O.2       1 <0>        -0.5679
     13 N2          2.7102   -2.5755    6.8273 N.am      1 <0>        -0.6116
     14 C10         4.1751   -2.5855    6.8478 C.3       1 <0>         0.0582
     15 C11         1.9584   -2.9465    8.0287 C.3       1 <0>         0.1568
     16 H2          0.8903   -2.8917    7.8183 H         1 <0>         0.1284
     17 C12         2.3252   -4.3828    8.4374 C.3       1 <0>        -0.1446
     18 C13         1.7672   -4.6372    9.8668 C.3       1 <0>        -0.5716
     19 S1          2.1538   -3.0254   10.6714 S.o2      1 <0>         2.3761
     20 O2          1.0256   -2.6022   11.4246 O.2       1 <0>        -0.9266
     21 O3          3.4227   -3.1174   11.3046 O.2       1 <0>        -0.9251
     22 C14         2.3070   -1.9675    9.1757 C.3       1 <0>        -0.6049
     23 N3         -1.4322    0.0981    0.2953 N.4       1 <0>        -0.6372
     24 H3         -0.2131   -2.0050   -0.8537 H         1 <0>         0.0823
     25 H4         -0.3410   -0.6802   -2.0356 H         1 <0>         0.0850
     26 H5          1.2487   -1.1341   -1.3760 H         1 <0>         0.1073
     27 H6         -0.8086   -1.9085    1.7594 H         1 <0>         0.1235
     28 H7          0.3792   -2.7141    3.7588 H         1 <0>         0.1530
     29 H8          3.6049   -0.0387    2.9089 H         1 <0>         0.1393
     30 H9          2.4137    0.7528    0.9060 H         1 <0>         0.1389
     31 H10         3.7134   -1.9542    4.5903 H         1 <0>         0.4150
     32 H11         4.5408   -1.6064    7.1574 H         1 <0>         0.0708
     33 H12         4.5235   -3.3424    7.5505 H         1 <0>         0.0907
     34 H13         4.5508   -2.8150    5.8507 H         1 <0>         0.0744
     35 H14         1.8802   -5.0898    7.7372 H         1 <0>         0.1071
     36 H15         3.4089   -4.4996    8.4391 H         1 <0>         0.0950
     37 H16         0.6926   -4.8186    9.8439 H         1 <0>         0.1451
     38 H17         2.2931   -5.4577   10.3550 H         1 <0>         0.1494
     39 H18         3.3254   -1.5940    9.0689 H         1 <0>         0.1447
     40 H19         1.5938   -1.1440    9.2111 H         1 <0>         0.1482
     41 H20        -1.8025   -0.7994    0.5701 H         1 <0>         0.4309
     42 H21        -1.5563    0.7580    1.0485 H         1 <0>         0.4383
     43 H22        -1.9209    0.4270   -0.5239 H         1 <0>         0.4373
@<TRIPOS>BOND
     1    1    2 1
     2    1   24 1
     3    1   25 1
     4    1   26 1
     5    2    3 1
     6    2    4 1
     7    2   23 1
     8    4    9 ar
     9    4    5 ar
    10    5    6 ar
    11    5   27 1
    12    6    7 ar
    13    6   28 1
    14    7    8 ar
    15    7   10 1
    16    8    9 ar
    17    8   29 1
    18    9   30 1
    19   10   11 am
    20   10   31 1
    21   11   12 2
    22   11   13 am
    23   13   14 1
    24   13   15 1
    25   14   32 1
    26   14   33 1
    27   14   34 1
    28   15   16 1
    29   15   22 1
    30   15   17 1
    31   17   18 1
    32   17   35 1
    33   17   36 1
    34   18   19 1
    35   18   37 1
    36   18   38 1
    37   19   20 2
    38   19   21 2
    39   19   22 1
    40   22   39 1
    41   22   40 1
    42   23   41 1
    43   23   42 1
    44   23   43 1
@<TRIPOS>MOLECULE
ZINC50459277
   37    38     0     0     0
SMALL
USER_CHARGES

@<TRIPOS>ATOM
      1 C1         -0.0225    1.8097    0.0120 C.3       1 <0>        -0.6735
      2 S1          0.0021   -0.0041    0.0020 S.o2      1 <0>         2.6085
      3 O1          0.8352   -0.4880    1.0465 O.2       1 <0>        -0.9484
      4 O2         -1.3147   -0.5105   -0.1678 O.2       1 <0>        -0.9476
      5 N1          0.7947   -0.4113   -1.3938 N.pl3     1 <0>        -1.0029
      6 C2          0.0529   -0.6009   -2.6478 C.3       1 <0>         0.1235
      7 C3          0.6771    0.2870   -3.7290 C.3       1 <0>        -0.1470
      8 C4          2.1735   -0.0168   -3.8317 C.3       1 <0>         0.1419
      9 C5          2.8525    0.2980   -2.4969 C.3       1 <0>        -0.1459
     10 C6          2.2538   -0.5838   -1.4030 C.3       1 <0>         0.1227
     11 N2          2.7674    0.8070   -4.8876 N.am      1 <0>        -0.6977
     12 C7          3.8914    0.3986   -5.5090 C.2       1 <0>         0.5449
     13 O3          4.4113   -0.6509   -5.1941 O.2       1 <0>        -0.5687
     14 C8          4.5023    1.2460   -6.5952 C.3       1 <0>        -0.1765
     15 H1          4.4080    2.3234   -6.4599 H         1 <0>         0.1628
     16 C9          4.4497    0.7064   -8.0259 C.3       1 <0>        -0.1246
     17 C10         5.7769    0.7268   -7.2636 C.3       1 <0>        -0.0370
     18 H2          6.5210    1.4627   -7.5683 H         1 <0>         0.1907
     19 N3          6.3115   -0.5596   -6.7974 N.4       1 <0>        -0.5998
     20 H3          1.0001    2.1870    0.0043 H         1 <0>         0.1256
     21 H4         -0.5497    2.1708   -0.8711 H         1 <0>         0.1265
     22 H5         -0.5327    2.1613    0.9088 H         1 <0>         0.1323
     23 H6          0.1128   -1.6455   -2.9533 H         1 <0>         0.0815
     24 H7         -0.9900   -0.3200   -2.5015 H         1 <0>         0.1032
     25 H8          0.1981    0.0847   -4.6870 H         1 <0>         0.0881
     26 H9          0.5359    1.3351   -3.4652 H         1 <0>         0.0780
     27 H10         2.3145   -1.0708   -4.0712 H         1 <0>         0.1003
     28 H11         3.9220    0.1036   -2.5779 H         1 <0>         0.0816
     29 H12         2.6909    1.3460   -2.2447 H         1 <0>         0.0732
     30 H13         2.6624   -0.2917   -0.4357 H         1 <0>         0.1000
     31 H14         2.4971   -1.6270   -1.6048 H         1 <0>         0.0796
     32 H15         2.3516    1.6463   -5.1395 H         1 <0>         0.4116
     33 H16         3.9732   -0.2615   -8.1816 H         1 <0>         0.1284
     34 H17         4.3212    1.4289   -8.8319 H         1 <0>         0.1483
     35 H18         5.6220   -1.2822   -6.9407 H         1 <0>         0.4375
     36 H19         7.1472   -0.7845   -7.3163 H         1 <0>         0.4365
     37 H20         6.5327   -0.4958   -5.8150 H         1 <0>         0.4426
@<TRIPOS>BOND
     1    1    2 1
     2    1   20 1
     3    1   21 1
     4    1   22 1
     5    2    3 2
     6    2    4 2
     7    2    5 1
     8    5   10 1
     9    5    6 1
    10    6    7 1
    11    6   23 1
    12    6   24 1
    13    7    8 1
    14    7   25 1
    15    7   26 1
    16    8    9 1
    17    8   11 1
    18    8   27 1
    19    9   10 1
    20    9   28 1
    21    9   29 1
    22   10   30 1
    23   10   31 1
    24   11   12 am
    25   11   32 1
    26   12   13 2
    27   12   14 1
    28   14   15 1
    29   14   17 1
    30   14   16 1
    31   16   17 1
    32   16   33 1
    33   16   34 1
    34   17   18 1
    35   17   19 1
    36   19   35 1
    37   19   36 1
    38   19   37 1
@<TRIPOS>MOLECULE
ZINC42872616
   33    34     0     0     0
SMALL
USER_CHARGES

@<TRIPOS>ATOM
      1 C1          0.1336   -0.4906   -2.1767 C.3       1 <0>        -0.1122
      2 C2         -0.7027    0.7624   -2.2168 C.cat     1 <0>         0.3344
      3 N1         -1.9115    0.8890   -2.8284 N.pl3     1 <0>        -0.5020
      4 C3         -2.3306    2.1821   -2.6298 C.2       1 <0>         0.2003
      5 C4         -1.3626    2.7980   -1.9043 C.2       1 <0>         0.3307
      6 N2         -0.3892    1.9038   -1.6655 N.pl3     1 <0>        -0.4972
      7 N3         -1.3789    4.1410   -1.4717 N.pl3     1 <0>        -0.8323
      8 N4         -3.5253    2.7545   -3.0878 N.pl3     1 <0>        -0.6083
      9 C5         -3.5784    3.3776   -4.4126 C.3       1 <0>         0.0920
     10 C6         -4.7210    2.7296   -2.2417 C.3       1 <0>         0.1604
     11 H1         -4.4984    2.2185   -1.3050 H         1 <0>         0.1085
     12 C7         -5.8599    2.0002   -2.9733 C.3       1 <0>        -0.1416
     13 C8         -7.2004    2.2444   -2.2392 C.3       1 <0>        -0.5787
     14 S1         -6.9351    3.8836   -1.4485 S.o2      1 <0>         2.3764
     15 O1         -7.7689    4.8434   -2.0832 O.2       1 <0>        -0.9207
     16 O2         -6.9936    3.7309   -0.0370 O.2       1 <0>        -0.9237
     17 C9         -5.1875    4.1842   -1.9485 C.3       1 <0>        -0.6092
     18 H2          0.8046   -0.5072   -3.0356 H         1 <0>         0.1228
     19 H3          0.7194   -0.5072   -1.2577 H         1 <0>         0.1181
     20 H4         -0.5182   -1.3636   -2.2080 H         1 <0>         0.1184
     21 H5         -2.1690    4.6860   -1.6115 H         1 <0>         0.4319
     22 H6         -0.5999    4.5192   -1.0345 H         1 <0>         0.4187
     23 H7         -3.8259    2.6231   -5.1594 H         1 <0>         0.0561
     24 H8         -4.3403    4.1571   -4.4173 H         1 <0>         0.0848
     25 H9         -2.6084    3.8162   -4.6470 H         1 <0>         0.0711
     26 H10        -5.9328    2.3752   -3.9942 H         1 <0>         0.0962
     27 H11        -5.6493    0.9310   -2.9959 H         1 <0>         0.0979
     28 H12        -8.0272    2.2866   -2.9482 H         1 <0>         0.1501
     29 H13        -7.3743    1.4757   -1.4862 H         1 <0>         0.1443
     30 H14        -4.6146    4.6250   -1.1327 H         1 <0>         0.1448
     31 H15        -5.1345    4.8031   -2.8442 H         1 <0>         0.1499
     32 H16        -2.3876    0.1968   -3.3132 H         1 <0>         0.4575
     33 H17         0.4221    2.0795   -1.1636 H         1 <0>         0.4607
@<TRIPOS>BOND
     1    1   18 1
     2    1   19 1
     3    1   20 1
     4    1    2 1
     5    2    3 1
     6    2    6 2
     7    3    4 1
     8    3   32 1
     9    4    8 1
    10    4    5 2
    11    5    6 1
    12    5    7 1
    13    6   33 1
    14    7   21 1
    15    7   22 1
    16    8    9 1
    17    8   10 1
    18    9   23 1
    19    9   24 1
    20    9   25 1
    21   10   11 1
    22   10   17 1
    23   10   12 1
    24   12   13 1
    25   12   26 1
    26   12   27 1
    27   13   14 1
    28   13   28 1
    29   13   29 1
    30   14   15 2
    31   14   16 2
    32   14   17 1
    33   17   30 1
    34   17   31 1
@<TRIPOS>MOLECULE
ZINC06725075
   43    45     0     0     0
SMALL
USER_CHARGES
4-hydroxy-2-oxo-3-phenyl-N-propyl-1H-quinazoline-4-carboxamide
@<TRIPOS>ATOM
      1 C1         -0.1943    1.5624   -6.4867 C.3       1 <0>        -0.1496
      2 C2          0.0123    1.0387   -5.0641 C.3       1 <0>        -0.1366
      3 C3          0.4403    2.1913   -4.1535 C.3       1 <0>         0.1159
      4 N1          0.6381    1.6899   -2.7912 N.am      1 <0>        -0.7161
      5 C4          1.0196    2.5331   -1.8115 C.2       1 <0>         0.4927
      6 O1          1.1992    3.7070   -2.0576 O.2       1 <0>        -0.5158
      7 C5          1.2232    2.0173   -0.4103 C.3       1 <0>         0.3923
      8 C6          2.4898    1.1930   -0.3968 C.ar      1 <0>        -0.1769
      9 C7          3.6985    1.7331   -0.7712 C.ar      1 <0>        -0.0580
     10 C8          4.8385    0.9477   -0.7463 C.ar      1 <0>        -0.1383
     11 C9          4.7602   -0.3737   -0.3456 C.ar      1 <0>        -0.0642
     12 C10         3.5479   -0.9182    0.0307 C.ar      1 <0>        -0.1543
     13 C11         2.4016   -0.1348    0.0071 C.ar      1 <0>         0.1858
     14 N2          1.1677   -0.6658    0.3839 N.am      1 <0>        -0.6594
     15 C12         0.0348    0.0483    0.3781 C.2       1 <0>         0.7123
     16 O2         -0.9958   -0.4972    0.7227 O.2       1 <0>        -0.5452
     17 N3         -0.0162    1.3411    0.0094 N.am      1 <0>        -0.5463
     18 C13        -1.2324    2.0331    0.0190 C.ar      1 <0>         0.1459
     19 C14        -1.5834    2.8082    1.1165 C.ar      1 <0>        -0.0856
     20 C15        -2.7819    3.4945    1.1204 C.ar      1 <0>        -0.1145
     21 C16        -3.6372    3.4014    0.0378 C.ar      1 <0>        -0.1054
     22 C17        -3.2932    2.6259   -1.0542 C.ar      1 <0>        -0.1147
     23 C18        -2.0935    1.9417   -1.0666 C.ar      1 <0>        -0.0995
     24 O3          1.4215    3.1448    0.4450 O.3       1 <0>        -0.5368
     25 H1         -0.9690    2.3292   -6.4827 H         1 <0>         0.0591
     26 H2          0.7381    1.9900   -6.8555 H         1 <0>         0.0588
     27 H3         -0.4992    0.7413   -7.1355 H         1 <0>         0.0620
     28 H4          0.7871    0.2720   -5.0681 H         1 <0>         0.0692
     29 H5         -0.9200    0.6112   -4.6953 H         1 <0>         0.0689
     30 H6         -0.3345    2.9581   -4.1494 H         1 <0>         0.0720
     31 H7          1.3726    2.6189   -4.5223 H         1 <0>         0.0719
     32 H8          0.4945    0.7510   -2.5944 H         1 <0>         0.3990
     33 H9          3.7579    2.7654   -1.0831 H         1 <0>         0.1351
     34 H10         5.7895    1.3672   -1.0397 H         1 <0>         0.1363
     35 H11         5.6517   -0.9832   -0.3272 H         1 <0>         0.1369
     36 H12         3.4916   -1.9507    0.3422 H         1 <0>         0.1379
     37 H13         1.1286   -1.5942    0.6622 H         1 <0>         0.4301
     38 H14        -0.9180    2.8775    1.9643 H         1 <0>         0.1279
     39 H15        -3.0533    4.1013    1.9716 H         1 <0>         0.1301
     40 H16        -4.5760    3.9352    0.0453 H         1 <0>         0.1283
     41 H17        -3.9632    2.5555   -1.8983 H         1 <0>         0.1290
     42 H18        -1.8256    1.3359   -1.9196 H         1 <0>         0.1202
     43 H19         2.2178    3.6554    0.2444 H         1 <0>         0.3993
@<TRIPOS>BOND
     1    1    2 1
     2    1   25 1
     3    1   26 1
     4    1   27 1
     5    2    3 1
     6    2   28 1
     7    2   29 1
     8    3    4 1
     9    3   30 1
    10    3   31 1
    11    4    5 am
    12    4   32 1
    13    5    6 2
    14    5    7 1
    15    7   17 1
    16    7    8 1
    17    7   24 1
    18    8   13 ar
    19    8    9 ar
    20    9   10 ar
    21    9   33 1
    22   10   11 ar
    23   10   34 1
    24   11   12 ar
    25   11   35 1
    26   12   13 ar
    27   12   36 1
    28   13   14 1
    29   14   15 am
    30   14   37 1
    31   15   16 2
    32   15   17 am
    33   17   18 1
    34   18   23 ar
    35   18   19 ar
    36   19   20 ar
    37   19   38 1
    38   20   21 ar
    39   20   39 1
    40   21   22 ar
    41   21   40 1
    42   22   23 ar
    43   22   41 1
    44   23   42 1
    45   24   43 1
@<TRIPOS>MOLECULE
ZINC29811234
   47    48     0     0     0
SMALL
USER_CHARGES
1-allyl-3-[4-[[(1S)-1-methyl-2-oxo-2-pyrrolidin-1-yl-ethyl]amino]phenyl]urea
@<TRIPOS>ATOM
      1 C1          0.6182    8.5056   -1.0471 C.3       1 <0>        -0.1645
      2 C2          0.2194    8.2606    0.4096 C.3       1 <0>         0.1427
      3 H1          0.9686    7.6424    0.9258 H         1 <0>         0.0964
      4 C3          0.0717    9.5819    1.1190 C.2       1 <0>         0.5303
      5 O1         -1.0149   10.1168    1.1846 O.2       1 <0>        -0.5342
      6 N1          1.1469   10.1692    1.6806 N.am      1 <0>        -0.6191
      7 C4          2.5321    9.6847    1.5914 C.3       1 <0>         0.0892
      8 C5          3.4114   10.6585    2.4038 C.3       1 <0>        -0.1353
      9 C6          2.3951   11.3108    3.3780 C.3       1 <0>        -0.1293
     10 C7          1.1280   11.4003    2.4914 C.3       1 <0>         0.1074
     11 N2         -1.0544    7.5382    0.4523 N.pl3     1 <0>        -0.7476
     12 C8         -1.0709    6.1426    0.3534 C.ar      1 <0>         0.2098
     13 C9         -2.2784    5.4578    0.3938 C.ar      1 <0>        -0.1742
     14 C10        -2.2944    4.0806    0.2967 C.ar      1 <0>        -0.0970
     15 C11        -1.1036    3.3804    0.1580 C.ar      1 <0>         0.1096
     16 C12         0.1041    4.0645    0.1229 C.ar      1 <0>        -0.0705
     17 C13         0.1202    5.4420    0.2151 C.ar      1 <0>        -0.1849
     18 N3         -1.1201    1.9820    0.0594 N.am      1 <0>        -0.6960
     19 C14        -0.1988    1.3486   -0.6933 C.2       1 <0>         0.7041
     20 O2          0.5849    1.9922   -1.3642 O.2       1 <0>        -0.5822
     21 N4         -0.1499    0.0018   -0.7067 N.am      1 <0>        -0.7520
     22 C15         0.8476   -0.6868   -1.5296 C.3       1 <0>         0.1683
     23 C16         0.6907   -2.1768   -1.3673 C.2       1 <0>        -0.1816
     24 C17         0.5192   -2.9359   -2.4210 C.2       1 <0>        -0.1660
     25 H2          0.7260    7.5411   -1.5649 H         1 <0>         0.0765
     26 H3          1.5747    9.0479   -1.0791 H         1 <0>         0.0666
     27 H4         -0.1594    9.1039   -1.5445 H         1 <0>         0.0684
     28 H5          2.5929    8.6690    2.0093 H         1 <0>         0.0708
     29 H6          2.8473    9.6671    0.5377 H         1 <0>         0.0728
     30 H7          4.1973   10.0937    2.9267 H         1 <0>         0.0855
     31 H8          3.8751   11.3882    1.7237 H         1 <0>         0.0791
     32 H9          2.2645   10.6645    4.2584 H         1 <0>         0.0788
     33 H10         2.7722   12.2936    3.6973 H         1 <0>         0.0886
     34 H11         1.1564   12.2770    1.8276 H         1 <0>         0.0715
     35 H12         0.2092   11.4274    3.0955 H         1 <0>         0.0799
     36 H13        -1.9979    8.0930    0.5621 H         1 <0>         0.4291
     37 H14        -3.2049    6.0024    0.5010 H         1 <0>         0.1239
     38 H15        -3.2334    3.5479    0.3281 H         1 <0>         0.1232
     39 H16         1.0306    3.5193    0.0195 H         1 <0>         0.1320
     40 H17         1.0593    5.9744    0.1836 H         1 <0>         0.1199
     41 H18        -1.8850    1.4018    0.5963 H         1 <0>         0.4241
     42 H19        -0.8589   -0.5804   -0.0998 H         1 <0>         0.4168
     43 H20         0.7021   -0.4156   -2.5857 H         1 <0>         0.0688
     44 H21         1.8566   -0.3874   -1.2099 H         1 <0>         0.0730
     45 H22         0.7202   -2.6269   -0.3641 H         1 <0>         0.1178
     46 H23         0.4047   -4.0235   -2.3026 H         1 <0>         0.1066
     47 H24         0.4897   -2.4857   -3.4242 H         1 <0>         0.1028
@<TRIPOS>BOND
     1    1    2 1
     2    1   25 1
     3    1   26 1
     4    1   27 1
     5    2    3 1
     6    2    4 1
     7    2   11 1
     8    4    5 2
     9    4    6 am
    10    6   10 1
    11    6    7 1
    12    7    8 1
    13    7   28 1
    14    7   29 1
    15    8    9 1
    16    8   30 1
    17    8   31 1
    18    9   10 1
    19    9   32 1
    20    9   33 1
    21   10   34 1
    22   10   35 1
    23   11   12 1
    24   11   36 1
    25   12   17 ar
    26   12   13 ar
    27   13   14 ar
    28   13   37 1
    29   14   15 ar
    30   14   38 1
    31   15   16 ar
    32   15   18 1
    33   16   17 ar
    34   16   39 1
    35   17   40 1
    36   18   19 am
    37   18   41 1
    38   19   20 2
    39   19   21 am
    40   21   22 1
    41   21   42 1
    42   22   23 1
    43   22   43 1
    44   22   44 1
    45   23   24 2
    46   23   45 1
    47   24   46 1
    48   24   47 1
@<TRIPOS>MOLECULE
ZINC49410972
   45    46     0     0     0
SMALL
USER_CHARGES

@<TRIPOS>ATOM
      1 C1         -0.0459    1.5256    0.0289 C.3       1 <0>        -0.1436
      2 C2         -0.0152   -0.0040    0.0137 C.3       1 <0>        -0.0793
      3 C3          0.7149   -0.5038    1.2336 C.2       1 <0>         0.2261
      4 C4          0.0138   -0.8586    2.3494 C.2       1 <0>        -0.3081
      5 C5          0.7174   -1.3226    3.4750 C.2       1 <0>         0.5506
      6 O1          0.1225   -1.6487    4.4891 O.2       1 <0>        -0.5347
      7 N1          2.0639   -1.4007    3.4119 N.am      1 <0>        -0.5276
      8 C6          2.7092   -1.0329    2.2721 C.2       1 <0>         0.6434
      9 N2          2.0422   -0.6037    1.2192 N.2       1 <0>        -0.5846
     10 N3          4.0745   -1.1150    2.2158 N.pl3     1 <0>        -0.8197
     11 C7          2.8273   -1.8794    4.5670 C.3       1 <0>         0.0674
     12 C8          2.9890   -3.3751    4.4774 C.2       1 <0>         0.4968
     13 O2          2.5134   -3.9814    3.5408 O.2       1 <0>        -0.4942
     14 N4          3.6622   -4.0388    5.4379 N.am      1 <0>        -0.6627
     15 C9          3.7142   -5.4370    5.4170 C.ar      1 <0>         0.1465
     16 C10         2.7148   -6.1611    4.7798 C.ar      1 <0>        -0.1302
     17 C11         2.7689   -7.5408    4.7610 C.ar      1 <0>        -0.0994
     18 C12         3.8166   -8.2017    5.3762 C.ar      1 <0>        -0.1312
     19 C13         4.8127   -7.4838    6.0117 C.ar      1 <0>        -0.0672
     20 C14         4.7679   -6.1033    6.0283 C.ar      1 <0>        -0.1159
     21 C15         5.8579   -5.3213    6.7150 C.3       1 <0>        -0.1166
     22 C16         5.9522   -8.2080    6.6811 C.3       1 <0>        -0.1164
     23 C17        -1.4893   -0.7545    2.3749 C.3       1 <0>        -0.0778
     24 H1          0.9742    1.9096    0.0246 H         1 <0>         0.0599
     25 H2         -0.5740    1.8872   -0.8535 H         1 <0>         0.0654
     26 H3         -0.5599    1.8698    0.9264 H         1 <0>         0.0570
     27 H4         -1.0353   -0.3880    0.0181 H         1 <0>         0.0889
     28 H5          0.4988   -0.3482   -0.8837 H         1 <0>         0.0864
     29 H6          4.5734   -1.4332    2.9845 H         1 <0>         0.4086
     30 H7          4.5431   -0.8549    1.4073 H         1 <0>         0.4300
     31 H8          3.8098   -1.4075    4.5740 H         1 <0>         0.1191
     32 H9          2.2958   -1.6258    5.4842 H         1 <0>         0.1417
     33 H10         4.1107   -3.5473    6.1438 H         1 <0>         0.4125
     34 H11         1.8960   -5.6456    4.2999 H         1 <0>         0.1426
     35 H12         1.9921   -8.1044    4.2657 H         1 <0>         0.1263
     36 H13         3.8565   -9.2808    5.3603 H         1 <0>         0.1241
     37 H14         5.5900   -5.1653    7.7600 H         1 <0>         0.0725
     38 H15         6.7940   -5.8769    6.6590 H         1 <0>         0.0758
     39 H16         5.9781   -4.3563    6.2227 H         1 <0>         0.0607
     40 H17         6.7626   -8.3500    5.9661 H         1 <0>         0.0720
     41 H18         6.3114   -7.6189    7.5250 H         1 <0>         0.0691
     42 H19         5.6070   -9.1789    7.0364 H         1 <0>         0.0688
     43 H20        -1.9244   -1.6922    2.0292 H         1 <0>         0.0619
     44 H21        -1.8223   -0.5530    3.3930 H         1 <0>         0.0674
     45 H22        -1.8085    0.0570    1.7209 H         1 <0>         0.0675
@<TRIPOS>BOND
     1    1    2 1
     2    1   24 1
     3    1   25 1
     4    1   26 1
     5    2    3 1
     6    2   27 1
     7    2   28 1
     8    3    9 1
     9    3    4 2
    10    4    5 1
    11    4   23 1
    12    5    6 2
    13    5    7 am
    14    7    8 1
    15    7   11 1
    16    8    9 2
    17    8   10 1
    18   10   29 1
    19   10   30 1
    20   11   12 1
    21   11   31 1
    22   11   32 1
    23   12   13 2
    24   12   14 am
    25   14   15 1
    26   14   33 1
    27   15   20 ar
    28   15   16 ar
    29   16   17 ar
    30   16   34 1
    31   17   18 ar
    32   17   35 1
    33   18   19 ar
    34   18   36 1
    35   19   20 ar
    36   19   22 1
    37   20   21 1
    38   21   37 1
    39   21   38 1
    40   21   39 1
    41   22   40 1
    42   22   41 1
    43   22   42 1
    44   23   43 1
    45   23   44 1
    46   23   45 1
@<TRIPOS>MOLECULE
ZINC58104349
   47    48     0     0     0
SMALL
USER_CHARGES

@<TRIPOS>ATOM
      1 C1         -1.3050    2.2985    0.7050 C.3       1 <0>        -0.1657
      2 C2         -0.6504    0.9828    0.2792 C.3       1 <0>         0.1538
      3 C3          0.3676    0.5536    1.3376 C.3       1 <0>        -0.1617
      4 N1         -1.6783   -0.0521    0.1422 N.am      1 <0>        -0.7344
      5 C4         -2.3658   -0.1707   -1.0109 C.2       1 <0>         0.7055
      6 O1         -2.1330    0.5813   -1.9375 O.2       1 <0>        -0.5765
      7 N2         -3.3114   -1.1227   -1.1369 N.am      1 <0>        -0.6727
      8 C5         -4.0864   -1.1859   -2.2924 C.ar      1 <0>         0.2321
      9 C6         -3.5300   -0.8672   -3.5240 C.ar      1 <0>        -0.1332
     10 C7         -4.2998   -0.9304   -4.6678 C.ar      1 <0>        -0.0698
     11 C8         -5.6303   -1.3113   -4.5976 C.ar      1 <0>        -0.1466
     12 C9         -6.1994   -1.6311   -3.3842 C.ar      1 <0>        -0.0655
     13 C10        -5.4313   -1.5774   -2.2185 C.ar      1 <0>        -0.1778
     14 C11        -6.0327   -1.9244   -0.9170 C.2       1 <0>         0.5713
     15 O2         -5.3926   -1.7790    0.1065 O.2       1 <0>        -0.5444
     16 N3         -7.2916   -2.4026   -0.8624 N.am      1 <0>        -0.7172
     17 C12        -7.8888   -2.7472    0.4301 C.3       1 <0>         0.1456
     18 C13        -7.4871   -4.1729    0.8137 C.3       1 <0>        -0.1638
     19 C14        -9.4127   -2.6568    0.3282 C.3       1 <0>        -0.0493
     20 C15        -9.8150   -1.2273    0.0715 C.2       1 <0>        -0.0144
     21 C16        -9.9687   -0.6583   -1.1376 C.2       1 <0>        -0.2043
     22 C17       -10.3494    0.6846   -0.9129 C.2       1 <0>        -0.2123
     23 C18       -10.4055    0.8560    0.4201 C.2       1 <0>        -0.0392
     24 O3        -10.0866   -0.3070    1.0113 O.3       1 <0>        -0.1749
     25 H1         -0.5403    3.0685    0.8069 H         1 <0>         0.0670
     26 H2         -2.0303    2.6042   -0.0490 H         1 <0>         0.0609
     27 H3         -1.8108    2.1600    1.6606 H         1 <0>         0.0563
     28 H4         -0.1446    1.1212   -0.6764 H         1 <0>         0.0902
     29 H5         -0.1382    0.4152    2.2932 H         1 <0>         0.0616
     30 H6          0.8339   -0.3837    1.0342 H         1 <0>         0.0623
     31 H7          1.1323    1.3236    1.4395 H         1 <0>         0.0756
     32 H8         -1.8640   -0.6521    0.8815 H         1 <0>         0.3989
     33 H9         -3.4522   -1.7640   -0.4228 H         1 <0>         0.4184
     34 H10        -2.4938   -0.5692   -3.5869 H         1 <0>         0.1487
     35 H11        -3.8626   -0.6812   -5.6234 H         1 <0>         0.1315
     36 H12        -6.2242   -1.3572   -5.4984 H         1 <0>         0.1300
     37 H13        -7.2368   -1.9273   -3.3349 H         1 <0>         0.1262
     38 H14        -7.8021   -2.5186   -1.6790 H         1 <0>         0.3995
     39 H15        -7.5337   -2.0525    1.1913 H         1 <0>         0.0945
     40 H16        -6.4014   -4.2373    0.8863 H         1 <0>         0.0660
     41 H17        -7.9314   -4.4293    1.7754 H         1 <0>         0.0704
     42 H18        -7.8421   -4.8676    0.0526 H         1 <0>         0.0610
     43 H19        -9.7599   -3.2848   -0.4923 H         1 <0>         0.1006
     44 H20        -9.8602   -2.9982    1.2616 H         1 <0>         0.1011
     45 H21        -9.8277   -1.1356   -2.0961 H         1 <0>         0.1443
     46 H22       -10.5552    1.4300   -1.6668 H         1 <0>         0.1481
     47 H23       -10.6668    1.7722    0.9287 H         1 <0>         0.2024
@<TRIPOS>BOND
     1    1    2 1
     2    1   25 1
     3    1   26 1
     4    1   27 1
     5    2    3 1
     6    2    4 1
     7    2   28 1
     8    3   29 1
     9    3   30 1
    10    3   31 1
    11    4    5 am
    12    4   32 1
    13    5    6 2
    14    5    7 am
    15    7    8 1
    16    7   33 1
    17    8   13 ar
    18    8    9 ar
    19    9   10 ar
    20    9   34 1
    21   10   11 ar
    22   10   35 1
    23   11   12 ar
    24   11   36 1
    25   12   13 ar
    26   12   37 1
    27   13   14 1
    28   14   15 2
    29   14   16 am
    30   16   17 1
    31   16   38 1
    32   17   18 1
    33   17   19 1
    34   17   39 1
    35   18   40 1
    36   18   41 1
    37   18   42 1
    38   19   20 1
    39   19   43 1
    40   19   44 1
    41   20   24 1
    42   20   21 2
    43   21   22 1
    44   21   45 1
    45   22   23 2
    46   22   46 1
    47   23   24 1
    48   23   47 1
@<TRIPOS>MOLECULE
ZINC65180515
   43    44     0     0     0
SMALL
USER_CHARGES

@<TRIPOS>ATOM
      1 C1         -0.0187    1.5258    0.0104 C.3       1 <0>        -0.1465
      2 C2          0.0021   -0.0041    0.0020 C.3       1 <0>        -0.1090
      3 C3          0.7421   -0.5109    1.2415 C.3       1 <0>        -0.1505
      4 C4         -1.4333   -0.5336    0.0129 C.3       1 <0>         0.1382
      5 N1         -1.4164   -1.9929   -0.1155 N.am      1 <0>        -0.7426
      6 C5         -2.5748   -2.6816   -0.1296 C.2       1 <0>         0.7125
      7 O1         -3.6339   -2.0918   -0.0358 O.2       1 <0>        -0.5683
      8 N2         -2.5593   -4.0241   -0.2477 N.am      1 <0>        -0.5316
      9 N3         -1.3389   -4.7037   -0.3558 N.am      1 <0>        -0.5275
     10 C6         -1.3234   -6.0462   -0.4740 C.2       1 <0>         0.5544
     11 O2         -2.3696   -6.6682   -0.4867 O.2       1 <0>        -0.5366
     12 C7         -0.0494   -6.7557   -0.5868 C.2       1 <0>        -0.2263
     13 C8         -0.0339   -8.1002   -0.7051 C.2       1 <0>         0.0138
     14 C9          1.2466   -8.8133   -0.8186 C.ar      1 <0>        -0.1152
     15 C10         2.4537   -8.1045   -0.7987 C.ar      1 <0>        -0.0590
     16 C11         3.6495   -8.7740   -0.9007 C.ar      1 <0>        -0.1419
     17 C12         3.6739  -10.1643   -1.0260 C.ar      1 <0>         0.1256
     18 C13         2.4706  -10.8640   -1.0527 C.ar      1 <0>        -0.1791
     19 C14         1.2699  -10.2081   -0.9416 C.ar      1 <0>        -0.0376
     20 C15         2.8147  -12.3317   -1.2201 C.3       1 <0>        -0.1120
     21 C16         4.2927  -12.2638   -1.6719 C.3       1 <0>         0.0499
     22 O3          4.7353  -11.0092   -1.1273 O.3       1 <0>        -0.3012
     23 H1          1.0039    1.9031    0.0027 H         1 <0>         0.0624
     24 H2         -0.5459    1.8868   -0.8726 H         1 <0>         0.0598
     25 H3         -0.5289    1.8773    0.9072 H         1 <0>         0.0601
     26 H4          0.5123   -0.3556   -0.8948 H         1 <0>         0.0774
     27 H5          0.7568   -1.6008    1.2356 H         1 <0>         0.0514
     28 H6          1.7647   -0.1336    1.2338 H         1 <0>         0.0606
     29 H7          0.2319   -0.1594    2.1383 H         1 <0>         0.0598
     30 H8         -1.9156   -0.2570    0.9504 H         1 <0>         0.0718
     31 H9         -1.9862   -0.1019   -0.8214 H         1 <0>         0.0714
     32 H10        -0.5715   -2.4635   -0.1904 H         1 <0>         0.3907
     33 H11        -3.3930   -4.5198   -0.2579 H         1 <0>         0.4443
     34 H12        -0.5052   -4.2080   -0.3457 H         1 <0>         0.4193
     35 H13         0.8789   -6.2038   -0.5755 H         1 <0>         0.1346
     36 H14        -0.9621   -8.6520   -0.7164 H         1 <0>         0.1392
     37 H15         2.4451   -7.0288   -0.7034 H         1 <0>         0.1384
     38 H16         4.5769   -8.2208   -0.8842 H         1 <0>         0.1346
     39 H17         0.3452  -10.7660   -0.9531 H         1 <0>         0.1333
     40 H18         2.7207  -12.8643   -0.2737 H         1 <0>         0.0941
     41 H19         2.1934  -12.7924   -1.9881 H         1 <0>         0.0956
     42 H20         4.8638  -13.0908   -1.2498 H         1 <0>         0.1107
     43 H21         4.3641  -12.2593   -2.7595 H         1 <0>         0.0811
@<TRIPOS>BOND
     1    1    2 1
     2    1   23 1
     3    1   24 1
     4    1   25 1
     5    2    3 1
     6    2    4 1
     7    2   26 1
     8    3   27 1
     9    3   28 1
    10    3   29 1
    11    4    5 1
    12    4   30 1
    13    4   31 1
    14    5    6 am
    15    5   32 1
    16    6    7 2
    17    6    8 am
    18    8    9 1
    19    8   33 1
    20    9   10 am
    21    9   34 1
    22   10   11 2
    23   10   12 1
    24   12   13 2
    25   12   35 1
    26   13   14 1
    27   13   36 1
    28   14   19 ar
    29   14   15 ar
    30   15   16 ar
    31   15   37 1
    32   16   17 ar
    33   16   38 1
    34   17   22 1
    35   17   18 ar
    36   18   19 ar
    37   18   20 1
    38   19   39 1
    39   20   21 1
    40   20   40 1
    41   20   41 1
    42   21   22 1
    43   21   42 1
    44   21   43 1
@<TRIPOS>MOLECULE
ZINC19679705
   39    40     0     0     0
SMALL
USER_CHARGES
(2R)-1-amino-3-[4-(2-thienylsulfonyl)piperazin-1-yl]propan-2-ol
@<TRIPOS>ATOM
      1 C1         -5.6358   -0.1830   -1.4431 C.2       1 <0>        -0.1946
      2 C2         -4.5723    0.5004   -2.0021 C.2       1 <0>        -0.0059
      3 C3         -3.3199    0.0043   -1.8515 C.2       1 <0>        -0.7704
      4 S1         -3.6191   -1.4658   -0.8838 S.3       1 <0>         0.1666
      5 C4         -5.3938   -1.3235   -0.7517 C.2       1 <0>        -0.1278
      6 S2         -1.7923    0.6475   -2.4492 S.o2      1 <0>         2.7225
      7 O1         -2.1046    1.4549   -3.5760 O.2       1 <0>        -0.9412
      8 O2         -0.8914   -0.4489   -2.5238 O.2       1 <0>        -0.9391
      9 N1         -1.2016    1.6671   -1.2856 N.pl3     1 <0>        -0.9968
     10 C5         -0.3175    1.1671   -0.2219 C.3       1 <0>         0.1211
     11 C6         -0.8714    1.6238    1.1320 C.3       1 <0>         0.0421
     12 N2         -1.0636    3.0805    1.1120 N.3       1 <0>        -0.5230
     13 C7         -2.0570    3.4774    0.1052 C.3       1 <0>         0.0380
     14 C8         -1.5468    3.0968   -1.2887 C.3       1 <0>         0.1229
     15 C9         -1.4341    3.5802    2.4427 C.3       1 <0>         0.0572
     16 C10        -1.1376    5.0790    2.5255 C.3       1 <0>         0.0973
     17 H1         -1.6195    5.6271    1.7025 H         1 <0>         0.0772
     18 C11        -1.5879    5.6135    3.8866 C.3       1 <0>        -0.0399
     19 N3         -1.4140    7.0717    3.9218 N.4       1 <0>        -0.6857
     20 O3          0.2660    5.2962    2.3690 O.3       1 <0>        -0.5600
     21 H2         -6.6440    0.1886   -1.5516 H         1 <0>         0.1468
     22 H3         -4.7371    1.4146   -2.5532 H         1 <0>         0.1462
     23 H4         -6.0930   -1.9765   -0.2506 H         1 <0>         0.1984
     24 H5         -0.2830    0.0683   -0.2602 H         1 <0>         0.1002
     25 H6          0.6953    1.5710   -0.3668 H         1 <0>         0.0903
     26 H7         -1.8351    1.1279    1.3200 H         1 <0>         0.0451
     27 H8         -0.1604    1.3572    1.9279 H         1 <0>         0.0953
     28 H9         -3.0070    2.9594    0.3033 H         1 <0>         0.0442
     29 H10        -2.2151    4.5649    0.1548 H         1 <0>         0.0834
     30 H11        -0.6535    3.6891   -1.5360 H         1 <0>         0.0882
     31 H12        -2.3296    3.2834   -2.0387 H         1 <0>         0.0979
     32 H13        -2.5072    3.4088    2.6130 H         1 <0>         0.0622
     33 H14        -0.8516    3.0483    3.2094 H         1 <0>         0.0947
     34 H15        -2.6481    5.3667    4.0449 H         1 <0>         0.1368
     35 H16        -0.9817    5.1526    4.6804 H         1 <0>         0.1397
     36 H17        -1.7377    7.4560    4.9003 H         1 <0>         0.4650
     37 H18        -2.0203    7.5325    3.1280 H         1 <0>         0.4567
     38 H19         0.6712    6.3184    2.4003 H         1 <0>         0.3965
     39 H20        -0.3538    7.3184    3.7634 H         1 <0>         0.4519
@<TRIPOS>BOND
     1    1    5 2
     2    1    2 1
     3    1   21 1
     4    2    3 2
     5    2   22 1
     6    3    4 1
     7    3    6 1
     8    4    5 1
     9    5   23 1
    10    6    7 2
    11    6    8 2
    12    6    9 1
    13    9   14 1
    14    9   10 1
    15   10   11 1
    16   10   24 1
    17   10   25 1
    18   11   12 1
    19   11   26 1
    20   11   27 1
    21   12   13 1
    22   12   15 1
    23   13   14 1
    24   13   28 1
    25   13   29 1
    26   14   30 1
    27   14   31 1
    28   15   16 1
    29   15   32 1
    30   15   33 1
    31   16   17 1
    32   16   18 1
    33   16   20 1
    34   18   19 1
    35   18   34 1
    36   18   35 1
    37   19   36 1
    38   19   37 1
    39   19   39 1
    40   20   38 1
@<TRIPOS>MOLECULE
ZINC37745005
   36    37     0     0     0
SMALL
USER_CHARGES

@<TRIPOS>ATOM
      1 C1         -0.0187    1.5258    0.0104 C.3       1 <0>        -0.1868
      2 C2          0.0021   -0.0041    0.0020 C.3       1 <0>         0.1602
      3 H1          0.5123   -0.3556   -0.8948 H         1 <0>         0.0918
      4 C3          0.7421   -0.5109    1.2415 C.3       1 <0>        -0.1090
      5 C4          0.0321   -0.0096    2.5025 C.3       1 <0>        -0.1523
      6 C5          0.8215   -0.4530    3.7361 C.3       1 <0>        -0.0068
      7 N1          2.1774    0.1065    3.6810 N.4       1 <0>        -0.5058
      8 C6          2.8889   -0.4261    2.5128 C.3       1 <0>        -0.0061
      9 C7          2.1791    0.0183    1.2322 C.3       1 <0>        -0.1484
     10 N2         -1.3723   -0.5112    0.0124 N.pl3     1 <0>        -1.1169
     11 S1         -2.1195   -0.9073   -1.4113 S.o2      1 <0>         2.7235
     12 O1         -3.4136   -1.3859   -1.0714 O.2       1 <0>        -0.9496
     13 O2         -1.9200    0.1888   -2.2934 O.2       1 <0>        -0.9527
     14 C8         -1.2421   -2.2724   -2.0979 C.2       1 <0>        -0.8214
     15 C9         -0.1861   -2.1973   -2.9407 C.2       1 <0>         0.1812
     16 N3          0.1966   -3.4578   -3.2338 N.pl3     1 <0>        -0.4564
     17 H2          0.9302   -3.7107   -3.8160 H         1 <0>         0.4482
     18 N4         -0.6522   -4.3365   -2.5485 N.2       1 <0>        -0.2804
     19 C10        -1.5102   -3.6249   -1.8633 C.2       1 <0>         0.1355
     20 H3          1.0039    1.9031    0.0027 H         1 <0>         0.0705
     21 H4         -0.5459    1.8868   -0.8726 H         1 <0>         0.0841
     22 H5         -0.5289    1.8773    0.9072 H         1 <0>         0.0664
     23 H6          0.7550   -1.6008    1.2380 H         1 <0>         0.0985
     24 H7         -0.0259    1.0786    2.4792 H         1 <0>         0.0990
     25 H8         -0.9737   -0.4276    2.5444 H         1 <0>         0.1139
     26 H9          0.3187   -0.0979    4.6356 H         1 <0>         0.1353
     27 H10         0.8787   -1.5413    3.7584 H         1 <0>         0.1309
     28 H11         2.1227    1.1116    3.6108 H         1 <0>         0.4285
     29 H12         3.9124   -0.0511    2.5093 H         1 <0>         0.1351
     30 H13         2.9020   -1.5149    2.5613 H         1 <0>         0.1303
     31 H14         2.7079   -0.3796    0.3661 H         1 <0>         0.1146
     32 H15         2.1656    1.1071    1.1826 H         1 <0>         0.0985
     33 H16        -1.8447   -0.6148    0.8533 H         1 <0>         0.4171
     34 H17         0.2689   -1.2911   -3.3123 H         1 <0>         0.1962
     35 H18        -2.2923   -4.0147   -1.2287 H         1 <0>         0.2004
     36 H19         2.6776   -0.1433    4.5209 H         1 <0>         0.4329
@<TRIPOS>BOND
     1    1    2 1
     2    1   20 1
     3    1   21 1
     4    1   22 1
     5    2    3 1
     6    2    4 1
     7    2   10 1
     8    4    9 1
     9    4    5 1
    10    4   23 1
    11    5    6 1
    12    5   24 1
    13    5   25 1
    14    6    7 1
    15    6   26 1
    16    6   27 1
    17    7    8 1
    18    7   28 1
    19    7   36 1
    20    8    9 1
    21    8   29 1
    22    8   30 1
    23    9   31 1
    24    9   32 1
    25   10   11 1
    26   10   33 1
    27   11   12 2
    28   11   13 2
    29   11   14 1
    30   14   19 1
    31   14   15 2
    32   15   16 1
    33   15   34 1
    34   16   17 1
    35   16   18 1
    36   18   19 2
    37   19   35 1
@<TRIPOS>MOLECULE
ZINC42424289
   39    39     0     0     0
SMALL
USER_CHARGES

@<TRIPOS>ATOM
      1 C1         -0.7222    1.4083    1.0934 C.3       1 <0>         0.0878
      2 N1         -0.6652   -0.0553    1.0646 N.am      1 <0>        -0.7047
      3 C2          0.5273   -0.6831    1.0514 C.2       1 <0>         0.5274
      4 O1          1.5533   -0.0364    1.0633 O.2       1 <0>        -0.5638
      5 C3          0.5860   -2.1887    1.0218 C.3       1 <0>         0.1355
      6 H1         -0.4185   -2.5958    1.1378 H         1 <0>         0.1022
      7 C4          1.1775   -2.6535   -0.3127 C.3       1 <0>        -0.1224
      8 C5          1.3636   -4.1722   -0.2823 C.3       1 <0>        -0.1199
      9 C6          2.3401   -4.5459    0.8352 C.3       1 <0>        -0.1382
     10 C7          1.7617   -4.1026    2.1827 C.3       1 <0>         0.1167
     11 N2          1.4417   -2.6699    2.1149 N.pl3     1 <0>        -0.9841
     12 S1          2.0377   -1.6172    3.2458 S.o2      1 <0>         2.6158
     13 O2          1.0731   -0.5761    3.3160 O.2       1 <0>        -0.9364
     14 O3          2.3162   -2.4245    4.3815 O.2       1 <0>        -0.9513
     15 C8          3.5825   -0.9903    2.5308 C.3       1 <0>        -0.6422
     16 C9          4.2274    0.0022    3.5003 C.3       1 <0>        -0.1393
     17 C10         5.5303    0.5309    2.8973 C.3       1 <0>         0.0016
     18 N3          6.1494    1.4839    3.8282 N.4       1 <0>        -0.6393
     19 H2         -0.2236    1.8087    0.2107 H         1 <0>         0.0616
     20 H3         -1.7632    1.7313    1.1005 H         1 <0>         0.0794
     21 H4         -0.2222    1.7738    1.9903 H         1 <0>         0.0678
     22 H5         -1.4857   -0.5725    1.0551 H         1 <0>         0.4068
     23 H6          0.5001   -2.3861   -1.1237 H         1 <0>         0.0836
     24 H7          2.1425   -2.1718   -0.4703 H         1 <0>         0.0777
     25 H8          0.4022   -4.6523   -0.1000 H         1 <0>         0.0722
     26 H9          1.7615   -4.5086   -1.2397 H         1 <0>         0.0763
     27 H10         2.4902   -5.6255    0.8412 H         1 <0>         0.0850
     28 H11         3.2942   -4.0464    0.6668 H         1 <0>         0.0667
     29 H12         0.8542   -4.6679    2.3946 H         1 <0>         0.0837
     30 H13         2.4951   -4.2765    2.9701 H         1 <0>         0.0970
     31 H14         4.2650   -1.8217    2.3547 H         1 <0>         0.1325
     32 H15         3.3689   -0.4893    1.5866 H         1 <0>         0.1732
     33 H16         3.5449    0.8337    3.6765 H         1 <0>         0.1021
     34 H17         4.4410   -0.4988    4.4445 H         1 <0>         0.0968
     35 H18         6.2128   -0.3005    2.7212 H         1 <0>         0.1377
     36 H19         5.3167    1.0319    1.9531 H         1 <0>         0.1403
     37 H20         5.5177    2.2536    3.9912 H         1 <0>         0.4372
     38 H21         6.3472    1.0201    4.7022 H         1 <0>         0.4364
     39 H22         7.0087    1.8326    3.4305 H         1 <0>         0.4407
@<TRIPOS>BOND
     1    1    2 1
     2    1   19 1
     3    1   20 1
     4    1   21 1
     5    2    3 am
     6    2   22 1
     7    3    4 2
     8    3    5 1
     9    5    6 1
    10    5   11 1
    11    5    7 1
    12    7    8 1
    13    7   23 1
    14    7   24 1
    15    8    9 1
    16    8   25 1
    17    8   26 1
    18    9   10 1
    19    9   27 1
    20    9   28 1
    21   10   11 1
    22   10   29 1
    23   10   30 1
    24   11   12 1
    25   12   13 2
    26   12   14 2
    27   12   15 1
    28   15   16 1
    29   15   31 1
    30   15   32 1
    31   16   17 1
    32   16   33 1
    33   16   34 1
    34   17   18 1
    35   17   35 1
    36   17   36 1
    37   18   37 1
    38   18   38 1
    39   18   39 1
@<TRIPOS>MOLECULE
ZINC61884174
   36    37     0     0     0
SMALL
USER_CHARGES

@<TRIPOS>ATOM
      1 C1         -0.0178    1.4608    0.0101 C.3       1 <0>         0.0846
      2 N1          0.0021   -0.0041    0.0020 N.pl3     1 <0>        -0.3554
      3 C2          0.0078   -0.7920   -1.0936 C.2       1 <0>         0.1740
      4 C3          0.0272   -2.0789   -0.6760 C.2       1 <0>        -0.8249
      5 C4          0.0335   -2.0775    0.7227 C.2       1 <0>         0.1289
      6 N2          0.0246   -0.8342    1.1302 N.2       1 <0>        -0.2812
      7 S1          0.0410   -3.5046   -1.7112 S.o2      1 <0>         2.7205
      8 O1         -0.4917   -4.5722   -0.9393 O.2       1 <0>        -0.9408
      9 O2         -0.5215   -3.1090   -2.9547 O.2       1 <0>        -0.9543
     10 N3          1.6266   -3.8796   -2.0070 N.pl3     1 <0>        -1.1234
     11 C5          2.4963   -4.3044   -0.9072 C.3       1 <0>         0.1647
     12 H1          2.1136   -3.9234    0.0396 H         1 <0>         0.1042
     13 C6          2.5780   -5.8404   -0.8630 C.3       1 <0>        -0.1449
     14 C7          4.0613   -6.2090   -1.0722 C.3       1 <0>        -0.1238
     15 C8          4.6554   -4.9865   -1.8150 C.3       1 <0>        -0.1392
     16 C9          3.9325   -3.7922   -1.1412 C.3       1 <0>        -0.1301
     17 H2          4.4083   -3.5439   -0.1925 H         1 <0>         0.1139
     18 C10         3.9229   -2.5772   -2.0710 C.3       1 <0>        -0.0053
     19 N4          5.2838   -2.0357   -2.1832 N.4       1 <0>        -0.6377
     20 H3          1.0048    1.8381    0.0023 H         1 <0>         0.0854
     21 H4         -0.5450    1.8219   -0.8730 H         1 <0>         0.0991
     22 H5         -0.5280    1.8123    0.9069 H         1 <0>         0.1019
     23 H6         -0.0017   -0.4556   -2.1198 H         1 <0>         0.1935
     24 H7          0.0482   -2.9516    1.3568 H         1 <0>         0.2003
     25 H8          1.9796   -3.8180   -2.9084 H         1 <0>         0.4142
     26 H9          2.2357   -6.2047    0.1057 H         1 <0>         0.0880
     27 H10         1.9706   -6.2697   -1.6597 H         1 <0>         0.0872
     28 H11         4.5582   -6.3507   -0.1124 H         1 <0>         0.0767
     29 H12         4.1486   -7.1067   -1.6842 H         1 <0>         0.0807
     30 H13         5.7322   -4.9247   -1.6575 H         1 <0>         0.0773
     31 H14         4.4212   -5.0297   -2.8787 H         1 <0>         0.0819
     32 H15         3.5688   -2.8773   -3.0573 H         1 <0>         0.1371
     33 H16         3.2603   -1.8134   -1.6640 H         1 <0>         0.1360
     34 H17         5.6116   -1.7579   -1.2702 H         1 <0>         0.4360
     35 H18         5.8972   -2.7427   -2.5600 H         1 <0>         0.4357
     36 H19         5.2775   -1.2344   -2.7964 H         1 <0>         0.4392
@<TRIPOS>BOND
     1    1    2 1
     2    1   20 1
     3    1   21 1
     4    1   22 1
     5    2    6 1
     6    2    3 1
     7    3    4 2
     8    3   23 1
     9    4    5 1
    10    4    7 1
    11    5    6 2
    12    5   24 1
    13    7    8 2
    14    7    9 2
    15    7   10 1
    16   10   11 1
    17   10   25 1
    18   11   12 1
    19   11   16 1
    20   11   13 1
    21   13   14 1
    22   13   26 1
    23   13   27 1
    24   14   15 1
    25   14   28 1
    26   14   29 1
    27   15   16 1
    28   15   30 1
    29   15   31 1
    30   16   17 1
    31   16   18 1
    32   18   19 1
    33   18   32 1
    34   18   33 1
    35   19   34 1
    36   19   35 1
    37   19   36 1
@<TRIPOS>MOLECULE
ZINC63195421
   49    50     0     0     0
SMALL
USER_CHARGES

@<TRIPOS>ATOM
      1 C1          0.6066   -1.3056   -1.3578 C.3       1 <0>        -0.1785
      2 C2          0.0612   -0.2849   -0.3569 C.3       1 <0>         0.0218
      3 H1         -1.0132   -0.4278   -0.2413 H         1 <0>         0.1410
      4 C3          0.7499   -0.4785    0.9955 C.3       1 <0>         0.0644
      5 H2          0.2939    0.1818    1.7331 H         1 <0>         0.0687
      6 C4          2.2375   -0.1446    0.8626 C.3       1 <0>        -0.1314
      7 C5          2.9264   -0.3590    2.2131 C.3       1 <0>        -0.1220
      8 C6          2.7108   -1.8066    2.6630 C.3       1 <0>        -0.1198
      9 C7          1.2095   -2.0924    2.7437 C.3       1 <0>         0.0550
     10 N1          0.5971   -1.8738    1.4271 N.3       1 <0>        -0.5012
     11 C8         -0.8171   -2.2715    1.4320 C.3       1 <0>         0.0181
     12 C9         -0.9162   -3.7738    1.4958 C.2       1 <0>         0.5134
     13 O1          0.0919   -4.4470    1.5335 O.2       1 <0>        -0.5019
     14 N2         -2.1252   -4.3694    1.5109 N.am      1 <0>        -0.7233
     15 C10        -2.2215   -5.8299    1.5729 C.3       1 <0>         0.1849
     16 C11        -1.4366   -6.4225    0.4035 C.3       1 <0>        -0.1371
     17 C12        -2.0380   -7.7950   -0.0089 C.3       1 <0>        -0.5637
     18 S1         -3.8352   -7.4102    0.1721 S.o2      1 <0>         2.3677
     19 O2         -4.2835   -6.7170   -0.9845 O.2       1 <0>        -0.9268
     20 O3         -4.5220   -8.5775    0.6023 O.2       1 <0>        -0.9254
     21 C13        -3.7107   -6.2268    1.5771 C.3       1 <0>        -0.5927
     22 C14        -1.5834   -6.3068    2.8791 C.3       1 <0>        -0.1715
     23 N3          0.3241    1.0735   -0.8504 N.4       1 <0>        -0.6350
     24 H3          0.4114   -2.3135   -0.9917 H         1 <0>         0.1168
     25 H4          0.1159   -1.1676   -2.3213 H         1 <0>         0.0791
     26 H5          1.6809   -1.1627   -1.4735 H         1 <0>         0.0861
     27 H6          2.6912   -0.7955    0.1152 H         1 <0>         0.0924
     28 H7          2.3510    0.8956    0.5572 H         1 <0>         0.0635
     29 H8          3.9941   -0.1640    2.1124 H         1 <0>         0.0781
     30 H9          2.4993    0.3194    2.9517 H         1 <0>         0.0652
     31 H10         3.1720   -2.4837    1.9440 H         1 <0>         0.0797
     32 H11         3.1626   -1.9540    3.6440 H         1 <0>         0.0781
     33 H12         1.0527   -3.1267    3.0500 H         1 <0>         0.0999
     34 H13         0.7514   -1.4244    3.4730 H         1 <0>         0.0390
     35 H14        -1.3136   -1.8374    2.2998 H         1 <0>         0.0764
     36 H15        -1.2982   -1.9139    0.5216 H         1 <0>         0.1038
     37 H16        -2.9314   -3.8310    1.4808 H         1 <0>         0.4038
     38 H17        -1.4822   -5.7393   -0.4445 H         1 <0>         0.0883
     39 H18        -0.3964   -6.5589    0.6996 H         1 <0>         0.1190
     40 H19        -1.7871   -8.0452   -1.0397 H         1 <0>         0.1466
     41 H20        -1.7301   -8.5856    0.6754 H         1 <0>         0.1439
     42 H21        -3.9763   -6.7141    2.5152 H         1 <0>         0.1548
     43 H22        -4.3417   -5.3552    1.4030 H         1 <0>         0.1453
     44 H23        -2.1187   -5.8740    3.7243 H         1 <0>         0.0659
     45 H24        -1.6365   -7.3941    2.9337 H         1 <0>         0.0749
     46 H25        -0.5403   -5.9920    2.9100 H         1 <0>         0.0861
     47 H26         1.3086    1.1752   -1.0469 H         1 <0>         0.4340
     48 H27        -0.2056    1.2333   -1.6941 H         1 <0>         0.4394
     49 H28         0.0501    1.7450   -0.1489 H         1 <0>         0.4348
@<TRIPOS>BOND
     1    1    2 1
     2    1   24 1
     3    1   25 1
     4    1   26 1
     5    2    3 1
     6    2    4 1
     7    2   23 1
     8    4    5 1
     9    4   10 1
    10    4    6 1
    11    6    7 1
    12    6   27 1
    13    6   28 1
    14    7    8 1
    15    7   29 1
    16    7   30 1
    17    8    9 1
    18    8   31 1
    19    8   32 1
    20    9   10 1
    21    9   33 1
    22    9   34 1
    23   10   11 1
    24   11   12 1
    25   11   35 1
    26   11   36 1
    27   12   13 2
    28   12   14 am
    29   14   15 1
    30   14   37 1
    31   15   21 1
    32   15   16 1
    33   15   22 1
    34   16   17 1
    35   16   38 1
    36   16   39 1
    37   17   18 1
    38   17   40 1
    39   17   41 1
    40   18   19 2
    41   18   20 2
    42   18   21 1
    43   21   42 1
    44   21   43 1
    45   22   44 1
    46   22   45 1
    47   22   46 1
    48   23   47 1
    49   23   48 1
    50   23   49 1
@<TRIPOS>MOLECULE
ZINC16184912
   44    46     0     0     0
SMALL
USER_CHARGES
3-(1,3-benzodioxole-5-carbonylamino)-1-[(1R,2S)-2-methylcyclohexyl]thiourea
@<TRIPOS>ATOM
      1 C1          2.9174   -0.4882    2.4702 C.3       1 <0>        -0.1505
      2 C2          2.1775    0.0187    1.2307 C.3       1 <0>        -0.1021
      3 H1          2.6876   -0.3328    0.3339 H         1 <0>         0.0971
      4 C3          0.7421   -0.5109    1.2415 C.3       1 <0>        -0.1164
      5 C4          0.0021   -0.0041    0.0020 C.3       1 <0>        -0.1237
      6 C5         -0.0187    1.5258    0.0104 C.3       1 <0>        -0.1206
      7 C6          1.4167    2.0553   -0.0004 C.3       1 <0>        -0.1332
      8 C7          2.1567    1.5485    1.2391 C.3       1 <0>         0.1501
      9 H2          3.1793    1.9258    1.2314 H         1 <0>         0.1203
     10 N1          1.4710    2.0210    2.4444 N.pl3     1 <0>        -0.6734
     11 C8          1.7449    3.2441    2.9399 C.2       1 <0>         0.5614
     12 S1          2.8942    4.2456    2.1607 S.2       1 <0>        -0.5853
     13 N2          1.1141    3.6787    4.0488 N.pl3     1 <0>        -0.4695
     14 N3          0.1736    2.8591    4.6864 N.am      1 <0>        -0.5460
     15 C9         -0.4573    3.2938    5.7953 C.2       1 <0>         0.5749
     16 O1         -0.2102    4.3972    6.2422 O.2       1 <0>        -0.5095
     17 C10        -1.4482    2.4303    6.4670 C.ar      1 <0>        -0.1260
     18 C11        -1.7334    1.1622    5.9550 C.ar      1 <0>        -0.0721
     19 C12        -2.6578    0.3572    6.5838 C.ar      1 <0>        -0.1052
     20 C13        -3.3091    0.8018    7.7267 C.ar      1 <0>         0.0719
     21 C14        -3.0290    2.0677    8.2430 C.ar      1 <0>         0.0297
     22 C15        -2.0989    2.8768    7.6200 C.ar      1 <0>        -0.0333
     23 O2         -3.7934    2.2622    9.3575 O.3       1 <0>        -0.3007
     24 C16        -4.2385    0.9507    9.7510 C.3       1 <0>         0.2113
     25 O3         -4.2472    0.2075    8.5180 O.3       1 <0>        -0.3011
     26 H3          2.9322   -1.5780    2.4642 H         1 <0>         0.0621
     27 H4          3.9400   -0.1109    2.4625 H         1 <0>         0.0631
     28 H5          2.4073   -0.1366    3.3670 H         1 <0>         0.0478
     29 H6          0.2319   -0.1594    2.1383 H         1 <0>         0.0501
     30 H7          0.7568   -1.6008    1.2356 H         1 <0>         0.0721
     31 H8         -1.0205   -0.3814    0.0098 H         1 <0>         0.0642
     32 H9          0.5123   -0.3556   -0.8948 H         1 <0>         0.0687
     33 H10        -0.5459    1.8868   -0.8726 H         1 <0>         0.0672
     34 H11        -0.5289    1.8773    0.9072 H         1 <0>         0.0533
     35 H12         1.9269    1.7038   -0.8972 H         1 <0>         0.0814
     36 H13         1.4019    3.1452    0.0056 H         1 <0>         0.0839
     37 H14         0.8198    1.4535    2.8859 H         1 <0>         0.3881
     38 H15         1.3112    4.5590    4.4054 H         1 <0>         0.4599
     39 H16        -0.0236    1.9789    4.3298 H         1 <0>         0.4180
     40 H17        -1.2290    0.8127    5.0662 H         1 <0>         0.1364
     41 H18        -2.8763   -0.6231    6.1868 H         1 <0>         0.1488
     42 H19        -1.8780    3.8549    8.0211 H         1 <0>         0.1548
     43 H20        -3.5408    0.5066   10.4609 H         1 <0>         0.0921
     44 H21        -5.2399    0.9986   10.1788 H         1 <0>         0.1397
@<TRIPOS>BOND
     1    1    2 1
     2    1   26 1
     3    1   27 1
     4    1   28 1
     5    2    3 1
     6    2    8 1
     7    2    4 1
     8    4    5 1
     9    4   29 1
    10    4   30 1
    11    5    6 1
    12    5   31 1
    13    5   32 1
    14    6    7 1
    15    6   33 1
    16    6   34 1
    17    7    8 1
    18    7   35 1
    19    7   36 1
    20    8    9 1
    21    8   10 1
    22   10   11 1
    23   10   37 1
    24   11   12 2
    25   11   13 1
    26   13   14 1
    27   13   38 1
    28   14   15 am
    29   14   39 1
    30   15   16 2
    31   15   17 1
    32   17   22 ar
    33   17   18 ar
    34   18   19 ar
    35   18   40 1
    36   19   20 ar
    37   19   41 1
    38   20   25 1
    39   20   21 ar
    40   21   22 ar
    41   21   23 1
    42   22   42 1
    43   23   24 1
    44   24   25 1
    45   24   43 1
    46   24   44 1
@<TRIPOS>MOLECULE
ZINC43042737
   51    52     0     0     0
SMALL
USER_CHARGES

@<TRIPOS>ATOM
      1 C1         -0.0187    1.5258    0.0104 C.3       1 <0>        -0.1541
      2 C2          0.0021   -0.0041    0.0020 C.3       1 <0>         0.0505
      3 O1          0.6709   -0.4649   -1.1737 O.3       1 <0>        -0.3097
      4 C3          0.7766   -1.8081   -1.3359 C.ar      1 <0>         0.1658
      5 C4          0.2404   -2.6657   -0.3825 C.ar      1 <0>        -0.2168
      6 C5          0.3456   -4.0293   -0.5434 C.ar      1 <0>        -0.0083
      7 C6          0.9919   -4.5504   -1.6673 C.ar      1 <0>        -0.1739
      8 C7          1.5292   -3.6849   -2.6237 C.ar      1 <0>        -0.0451
      9 C8          1.4157   -2.3226   -2.4579 C.ar      1 <0>        -0.1578
     10 C9          1.1073   -6.0114   -1.8435 C.2       1 <0>         0.5687
     11 O2          0.6395   -6.7630   -1.0101 O.2       1 <0>        -0.5286
     12 N1          1.7311   -6.5122   -2.9282 N.am      1 <0>        -0.5287
     13 N2          1.8406   -7.8988   -3.0954 N.am      1 <0>        -0.5306
     14 C10         2.4644   -8.3996   -4.1801 C.2       1 <0>         0.7142
     15 O3          2.5594   -9.6030   -4.3253 O.2       1 <0>        -0.5659
     16 N3          2.9829   -7.5664   -5.1039 N.am      1 <0>        -0.7378
     17 C11         3.6610   -8.1107   -6.2830 C.3       1 <0>         0.1669
     18 H1          4.1921   -9.0220   -6.0082 H         1 <0>         0.0928
     19 C12         2.6266   -8.4296   -7.3643 C.3       1 <0>        -0.1312
     20 C13         3.3348   -8.9981   -8.5957 C.3       1 <0>        -0.1176
     21 C14         4.3317   -7.9685   -9.1313 C.3       1 <0>        -0.1175
     22 C15         5.3661   -7.6496   -8.0500 C.3       1 <0>        -0.0832
     23 H2          5.8972   -8.5610   -7.7752 H         1 <0>         0.0742
     24 C16         4.6579   -7.0812   -6.8186 C.3       1 <0>        -0.0931
     25 H3          4.1268   -6.1699   -7.0934 H         1 <0>         0.0758
     26 C17         5.6923   -6.7623   -5.7373 C.3       1 <0>        -0.1508
     27 C18         6.3630   -6.6201   -8.5857 C.3       1 <0>        -0.1497
     28 H4          1.0039    1.9031    0.0027 H         1 <0>         0.0680
     29 H5         -0.5459    1.8868   -0.8726 H         1 <0>         0.0680
     30 H6         -0.5289    1.8773    0.9072 H         1 <0>         0.0817
     31 H7          0.5293   -0.3651    0.8851 H         1 <0>         0.0670
     32 H8         -1.0205   -0.3814    0.0098 H         1 <0>         0.0670
     33 H9         -0.2590   -2.2621    0.4859 H         1 <0>         0.1388
     34 H10        -0.0707   -4.6950    0.1982 H         1 <0>         0.1429
     35 H11         2.0295   -4.0839   -3.4937 H         1 <0>         0.1297
     36 H12         1.8271   -1.6530   -3.1987 H         1 <0>         0.1413
     37 H13         2.1043   -5.9125   -3.5931 H         1 <0>         0.4172
     38 H14         1.4674   -8.4985   -2.4306 H         1 <0>         0.4442
     39 H15         2.9071   -6.6063   -4.9881 H         1 <0>         0.3883
     40 H16         1.9163   -9.1631   -6.9827 H         1 <0>         0.0697
     41 H17         2.0954   -7.5183   -7.6391 H         1 <0>         0.0633
     42 H18         3.8659   -9.9094   -8.3209 H         1 <0>         0.0656
     43 H19         2.5979   -9.2253   -9.3660 H         1 <0>         0.0665
     44 H20         4.8362   -8.3735  -10.0086 H         1 <0>         0.0656
     45 H21         3.8005   -7.0572   -9.4061 H         1 <0>         0.0632
     46 H22         6.2234   -7.6736   -5.4625 H         1 <0>         0.0578
     47 H23         6.4025   -6.0288   -6.1189 H         1 <0>         0.0631
     48 H24         5.1878   -6.3573   -4.8601 H         1 <0>         0.0520
     49 H25         5.8319   -5.7088   -8.8604 H         1 <0>         0.0548
     50 H26         7.0999   -6.3929   -7.8153 H         1 <0>         0.0590
     51 H27         6.8675   -7.0251   -9.4629 H         1 <0>         0.0566
@<TRIPOS>BOND
     1    1    2 1
     2    1   28 1
     3    1   29 1
     4    1   30 1
     5    2    3 1
     6    2   31 1
     7    2   32 1
     8    3    4 1
     9    4    9 ar
    10    4    5 ar
    11    5    6 ar
    12    5   33 1
    13    6    7 ar
    14    6   34 1
    15    7    8 ar
    16    7   10 1
    17    8    9 ar
    18    8   35 1
    19    9   36 1
    20   10   11 2
    21   10   12 am
    22   12   13 1
    23   12   37 1
    24   13   14 am
    25   13   38 1
    26   14   15 2
    27   14   16 am
    28   16   17 1
    29   16   39 1
    30   17   18 1
    31   17   24 1
    32   17   19 1
    33   19   20 1
    34   19   40 1
    35   19   41 1
    36   20   21 1
    37   20   42 1
    38   20   43 1
    39   21   22 1
    40   21   44 1
    41   21   45 1
    42   22   23 1
    43   22   24 1
    44   22   27 1
    45   24   25 1
    46   24   26 1
    47   26   46 1
    48   26   47 1
    49   26   48 1
    50   27   49 1
    51   27   50 1
    52   27   51 1
@<TRIPOS>MOLECULE
ZINC53850847
   46    48     0     0     0
SMALL
USER_CHARGES

@<TRIPOS>ATOM
      1 C1         -0.0184    1.5028    0.0103 C.3       1 <0>        -0.1167
      2 C2          0.0021   -0.0041    0.0020 C.ar      1 <0>        -0.0530
      3 C3          0.0057   -0.6883   -1.1997 C.ar      1 <0>        -0.1522
      4 C4          0.0244   -2.0706   -1.2107 C.ar      1 <0>        -0.0788
      5 C5          0.0391   -2.7719   -0.0203 C.ar      1 <0>        -0.1157
      6 C6          0.0355   -2.0879    1.1864 C.ar      1 <0>         0.1284
      7 C7          0.0229   -0.7004    1.1947 C.ar      1 <0>        -0.2079
      8 O1          0.0500   -2.7755    2.3585 O.3       1 <0>        -0.2858
      9 C8          0.0452   -2.0055    3.5624 C.3       1 <0>         0.0404
     10 C9          0.0629   -2.9317    4.7511 C.2       1 <0>         0.5191
     11 O2          0.0781   -4.1328    4.5838 O.2       1 <0>        -0.5093
     12 N1          0.0619   -2.4252    6.0000 N.am      1 <0>        -0.7233
     13 C10         0.0791   -3.3256    7.1556 C.3       1 <0>         0.1907
     14 H1          0.6792   -4.2050    6.9221 H         1 <0>         0.1014
     15 C11        -1.3508   -3.7572    7.4871 C.3       1 <0>        -0.1609
     16 C12         0.6755   -2.6106    8.3406 C.ar      1 <0>        -0.0836
     17 C13         0.3592   -1.2835    8.5756 C.ar      1 <0>        -0.1033
     18 C14         0.9007   -0.6198    9.6590 C.ar      1 <0>        -0.0975
     19 C15         1.7649   -1.2856   10.5148 C.ar      1 <0>         0.0923
     20 C16         2.0839   -2.6242   10.2777 C.ar      1 <0>         0.0954
     21 C17         1.5308   -3.2838    9.1906 C.ar      1 <0>        -0.0897
     22 N2          2.9587   -3.0147   11.2888 N.am      1 <0>        -0.6414
     23 H2          3.3541   -3.8948   11.3889 H         1 <0>         0.4377
     24 C18         3.1624   -1.9622   12.1034 C.2       1 <0>         0.6845
     25 O3          3.8771   -1.9663   13.0883 O.2       1 <0>        -0.5506
     26 N3          2.4557   -0.9044   11.6626 N.am      1 <0>        -0.6418
     27 H3          2.4317   -0.0263   12.0742 H         1 <0>         0.4372
     28 C19         0.0585   -4.2788   -0.0330 C.3       1 <0>        -0.1078
     29 H4          1.0042    1.8801    0.0026 H         1 <0>         0.0728
     30 H5         -0.5455    1.8639   -0.8728 H         1 <0>         0.0694
     31 H6         -0.5286    1.8543    0.9071 H         1 <0>         0.0660
     32 H7         -0.0065   -0.1419   -2.1312 H         1 <0>         0.1244
     33 H8          0.0272   -2.6027   -2.1505 H         1 <0>         0.1305
     34 H9          0.0248   -0.1655    2.1329 H         1 <0>         0.1267
     35 H10         0.9269   -1.3651    3.5876 H         1 <0>         0.0936
     36 H11        -0.8529   -1.3888    3.5957 H         1 <0>         0.0937
     37 H12         0.0497   -1.4646    6.1338 H         1 <0>         0.4016
     38 H13        -1.7822   -4.2744    6.6300 H         1 <0>         0.0677
     39 H14        -1.3380   -4.4271    8.3469 H         1 <0>         0.0715
     40 H15        -1.9510   -2.8778    7.7206 H         1 <0>         0.0620
     41 H16        -0.3137   -0.7649    7.9088 H         1 <0>         0.1332
     42 H17         0.6519    0.4156    9.8389 H         1 <0>         0.1361
     43 H18         1.7719   -4.3203    9.0066 H         1 <0>         0.1367
     44 H19         1.0908   -4.6288   -0.0409 H         1 <0>         0.0686
     45 H20        -0.4463   -4.6561    0.8563 H         1 <0>         0.0728
     46 H21        -0.4549   -4.6412   -0.9236 H         1 <0>         0.0649
@<TRIPOS>BOND
     1    1    2 1
     2    1   29 1
     3    1   30 1
     4    1   31 1
     5    2    7 ar
     6    2    3 ar
     7    3    4 ar
     8    3   32 1
     9    4    5 ar
    10    4   33 1
    11    5    6 ar
    12    5   28 1
    13    6    7 ar
    14    6    8 1
    15    7   34 1
    16    8    9 1
    17    9   10 1
    18    9   35 1
    19    9   36 1
    20   10   11 2
    21   10   12 am
    22   12   13 1
    23   12   37 1
    24   13   14 1
    25   13   15 1
    26   13   16 1
    27   15   38 1
    28   15   39 1
    29   15   40 1
    30   16   21 ar
    31   16   17 ar
    32   17   18 ar
    33   17   41 1
    34   18   19 ar
    35   18   42 1
    36   19   26 1
    37   19   20 ar
    38   20   21 ar
    39   20   22 1
    40   21   43 1
    41   22   23 1
    42   22   24 am
    43   24   25 2
    44   24   26 am
    45   26   27 1
    46   28   44 1
    47   28   45 1
    48   28   46 1
@<TRIPOS>MOLECULE
ZINC61750950
   51    52     0     0     0
SMALL
USER_CHARGES

@<TRIPOS>ATOM
      1 C1         -0.8125    0.5695   -2.2783 C.3       1 <0>        -0.1547
      2 C2         -0.5726   -0.7720   -1.5828 C.3       1 <0>        -0.1267
      3 C3          0.3323   -0.5616   -0.3672 C.3       1 <0>        -0.1189
      4 C4          0.5721   -1.9031    0.3283 C.3       1 <0>        -0.0852
      5 C5          1.2659   -1.6404    1.6615 C.3       1 <0>        -0.1121
      6 C6          0.9489   -2.7619    2.6198 C.3       1 <0>        -0.1318
      7 C7          2.0265   -3.8574    2.5270 C.3       1 <0>         0.1265
      8 N1          2.4440   -4.1105    1.1341 N.am      1 <0>        -0.6145
      9 C8          1.5045   -4.1813    0.0374 C.3       1 <0>         0.1067
     10 C9          1.3261   -2.7748   -0.5856 C.3       1 <0>        -0.1375
     11 C10         3.7552   -4.2822    0.8737 C.2       1 <0>         0.7017
     12 O1          4.5746   -4.1427    1.7611 O.2       1 <0>        -0.5713
     13 N2          4.1580   -4.6086   -0.3704 N.am      1 <0>        -0.6852
     14 C11         5.4999   -4.9347   -0.6094 C.ar      1 <0>         0.1315
     15 C12         6.2401   -5.5888    0.3662 C.ar      1 <0>        -0.0778
     16 C13         7.5621   -5.9103    0.1299 C.ar      1 <0>        -0.1235
     17 C14         8.1506   -5.5799   -1.0821 C.ar      1 <0>         0.1110
     18 C15         7.4118   -4.9260   -2.0571 C.ar      1 <0>        -0.1891
     19 C16         6.0880   -4.6091   -1.8242 C.ar      1 <0>        -0.1076
     20 O2          9.4524   -5.8968   -1.3142 O.3       1 <0>        -0.2898
     21 C17         9.9938   -5.5267   -2.5838 C.3       1 <0>         0.0395
     22 C18        11.4365   -5.9557   -2.6591 C.2       1 <0>         0.5187
     23 O3         11.9505   -6.5225   -1.7182 O.2       1 <0>        -0.5161
     24 N3         12.1555   -5.7094   -3.7721 N.am      1 <0>        -0.8508
     25 H1          0.1410    0.9861   -2.6029 H         1 <0>         0.0529
     26 H2         -1.4572    0.4196   -3.1444 H         1 <0>         0.0535
     27 H3         -1.2922    1.2585   -1.5832 H         1 <0>         0.0534
     28 H4         -1.5261   -1.1886   -1.2582 H         1 <0>         0.0608
     29 H5         -0.0929   -1.4610   -2.2780 H         1 <0>         0.0627
     30 H6          1.2858   -0.1450   -0.6918 H         1 <0>         0.0604
     31 H7         -0.1475    0.1274    0.3280 H         1 <0>         0.0626
     32 H8         -0.3944   -2.3654    0.5288 H         1 <0>         0.0682
     33 H9          2.3435   -1.5881    1.5066 H         1 <0>         0.0652
     34 H10         0.9115   -0.6967    2.0761 H         1 <0>         0.0655
     35 H11         0.9178   -2.3705    3.6366 H         1 <0>         0.0783
     36 H12        -0.0224   -3.1881    2.3687 H         1 <0>         0.0668
     37 H13         2.8963   -3.5481    3.1066 H         1 <0>         0.0935
     38 H14         1.6305   -4.7801    2.9511 H         1 <0>         0.0634
     39 H15         1.8818   -4.8685   -0.7199 H         1 <0>         0.0727
     40 H16         0.5432   -4.5397    0.4056 H         1 <0>         0.0852
     41 H17         0.7853   -2.8635   -1.5278 H         1 <0>         0.0804
     42 H18         2.3063   -2.3372   -0.7750 H         1 <0>         0.0647
     43 H19         3.5192   -4.6177   -1.1003 H         1 <0>         0.4058
     44 H20         5.7821   -5.8457    1.3100 H         1 <0>         0.1424
     45 H21         8.1381   -6.4187    0.8889 H         1 <0>         0.1370
     46 H22         7.8706   -4.6688   -3.0003 H         1 <0>         0.1313
     47 H23         5.5116   -4.1040   -2.5851 H         1 <0>         0.1281
     48 H24         9.4275   -6.0154   -3.3767 H         1 <0>         0.0946
     49 H25         9.9295   -4.4453   -2.7049 H         1 <0>         0.0945
     50 H26        11.7444   -5.2560   -4.5247 H         1 <0>         0.4033
     51 H27        13.0841   -5.9855   -3.8206 H         1 <0>         0.4099
@<TRIPOS>BOND
     1    1    2 1
     2    1   25 1
     3    1   26 1
     4    1   27 1
     5    2    3 1
     6    2   28 1
     7    2   29 1
     8    3    4 1
     9    3   30 1
    10    3   31 1
    11    4   10 1
    12    4    5 1
    13    4   32 1
    14    5    6 1
    15    5   33 1
    16    5   34 1
    17    6    7 1
    18    6   35 1
    19    6   36 1
    20    7    8 1
    21    7   37 1
    22    7   38 1
    23    8    9 1
    24    8   11 am
    25    9   10 1
    26    9   39 1
    27    9   40 1
    28   10   41 1
    29   10   42 1
    30   11   12 2
    31   11   13 am
    32   13   14 1
    33   13   43 1
    34   14   19 ar
    35   14   15 ar
    36   15   16 ar
    37   15   44 1
    38   16   17 ar
    39   16   45 1
    40   17   18 ar
    41   17   20 1
    42   18   19 ar
    43   18   46 1
    44   19   47 1
    45   20   21 1
    46   21   22 1
    47   21   48 1
    48   21   49 1
    49   22   23 2
    50   22   24 am
    51   24   50 1
    52   24   51 1
@<TRIPOS>MOLECULE
ZINC66121013
   57    58     0     0     0
SMALL
USER_CHARGES

@<TRIPOS>ATOM
      1 C1         -0.0103    1.5146   -0.0089 C.3       1 <0>        -0.1451
      2 C2          0.0136   -0.0152   -0.0168 C.3       1 <0>        -0.0873
      3 H1          0.5279   -0.3659   -0.9116 H         1 <0>         0.0779
      4 C3         -1.4207   -0.5477   -0.0112 C.3       1 <0>        -0.1135
      5 C4         -1.3968   -2.0775   -0.0192 C.3       1 <0>        -0.1238
      6 C5         -0.6604   -2.5825    1.2233 C.3       1 <0>        -0.1180
      7 C6          0.7739   -2.0499    1.2177 C.3       1 <0>        -0.1421
      8 C7          0.7500   -0.5201    1.2256 C.3       1 <0>         0.0962
      9 H2          0.2357   -0.1694    2.1204 H         1 <0>         0.0598
     10 O1          2.0896   -0.0228    1.2204 O.3       1 <0>        -0.3766
     11 C8          2.6420    0.1729    2.5237 C.3       1 <0>         0.0487
     12 C9          4.0712    0.7044    2.3973 C.3       1 <0>         0.1414
     13 N1          4.0451    2.0344    1.7837 N.am      1 <0>        -0.7413
     14 C10         5.1968    2.7016    1.5721 C.2       1 <0>         0.7087
     15 O2          6.2486    2.2408    1.9716 O.2       1 <0>        -0.5916
     16 N2          5.1826    3.8797    0.9176 N.am      1 <0>        -0.6283
     17 C11         3.9109    4.5082    0.5349 C.3       1 <0>         0.1117
     18 C12         3.8876    5.9420    1.0739 C.3       1 <0>        -0.1352
     19 C13         5.1303    6.6878    0.5823 C.3       1 <0>        -0.1147
     20 C14         6.3870    5.9931    1.1118 C.3       1 <0>        -0.1032
     21 H3          6.3592    5.9715    2.2012 H         1 <0>         0.0762
     22 C15         6.4385    4.5629    0.5785 C.3       1 <0>         0.1310
     23 C16         7.6277    6.7587    0.6477 C.3       1 <0>        -0.0964
     24 C17         8.8757    6.1380    1.2786 C.3       1 <0>        -0.1468
     25 C18        10.0977    6.8921    0.8215 C.2       1 <0>         0.5154
     26 O3          9.9819    7.8334    0.0655 O.2       1 <0>        -0.5446
     27 N3         11.3194    6.5206    1.2527 N.am      1 <0>        -0.8588
     28 H4          1.0115    1.8940   -0.0129 H         1 <0>         0.0599
     29 H5         -0.5349    1.8744   -0.8941 H         1 <0>         0.0557
     30 H6         -0.5246    1.8653    0.8858 H         1 <0>         0.0510
     31 H7         -1.9350   -0.1970    0.8835 H         1 <0>         0.0630
     32 H8         -1.9453   -0.1879   -0.8964 H         1 <0>         0.0687
     33 H9         -2.4186   -2.4569   -0.0152 H         1 <0>         0.0646
     34 H10        -0.8825   -2.4282   -0.9139 H         1 <0>         0.0641
     35 H11        -1.1747   -2.2317    2.1181 H         1 <0>         0.0618
     36 H12        -0.6434   -3.6723    1.2177 H         1 <0>         0.0659
     37 H13         1.2985   -2.4097    2.1029 H         1 <0>         0.0631
     38 H14         1.2882   -2.4006    0.3229 H         1 <0>         0.0715
     39 H15         2.0339    0.8925    3.0718 H         1 <0>         0.0553
     40 H16         2.6534   -0.7761    3.0597 H         1 <0>         0.0675
     41 H17         4.5234    0.7696    3.3869 H         1 <0>         0.0818
     42 H18         4.6565    0.0282    1.7742 H         1 <0>         0.0750
     43 H19         3.1989    2.4349    1.5298 H         1 <0>         0.3978
     44 H20         3.8239    4.5248   -0.5515 H         1 <0>         0.0711
     45 H21         3.0816    3.9440    0.9614 H         1 <0>         0.0748
     46 H22         2.9926    6.4507    0.7159 H         1 <0>         0.0773
     47 H23         3.8833    5.9209    2.1637 H         1 <0>         0.0671
     48 H24         5.1468    6.6871   -0.5075 H         1 <0>         0.0674
     49 H25         5.1038    7.7156    0.9442 H         1 <0>         0.0689
     50 H26         7.2762    4.0347    1.0338 H         1 <0>         0.0947
     51 H27         6.5621    4.5840   -0.5042 H         1 <0>         0.0661
     52 H28         7.7037    6.7034   -0.4383 H         1 <0>         0.0738
     53 H29         7.5464    7.8018    0.9535 H         1 <0>         0.0756
     54 H30         8.7997    6.1933    2.3645 H         1 <0>         0.0956
     55 H31         8.9569    5.0949    0.9727 H         1 <0>         0.0975
     56 H32        11.4120    5.7677    1.8573 H         1 <0>         0.4024
     57 H33        12.1059    7.0060    0.9585 H         1 <0>         0.4011
@<TRIPOS>BOND
     1    1    2 1
     2    1   28 1
     3    1   29 1
     4    1   30 1
     5    2    3 1
     6    2    8 1
     7    2    4 1
     8    4    5 1
     9    4   31 1
    10    4   32 1
    11    5    6 1
    12    5   33 1
    13    5   34 1
    14    6    7 1
    15    6   35 1
    16    6   36 1
    17    7    8 1
    18    7   37 1
    19    7   38 1
    20    8    9 1
    21    8   10 1
    22   10   11 1
    23   11   12 1
    24   11   39 1
    25   11   40 1
    26   12   13 1
    27   12   41 1
    28   12   42 1
    29   13   14 am
    30   13   43 1
    31   14   15 2
    32   14   16 am
    33   16   22 1
    34   16   17 1
    35   17   18 1
    36   17   44 1
    37   17   45 1
    38   18   19 1
    39   18   46 1
    40   18   47 1
    41   19   20 1
    42   19   48 1
    43   19   49 1
    44   20   21 1
    45   20   22 1
    46   20   23 1
    47   22   50 1
    48   22   51 1
    49   23   24 1
    50   23   52 1
    51   23   53 1
    52   24   25 1
    53   24   54 1
    54   24   55 1
    55   25   26 2
    56   25   27 am
    57   27   56 1
    58   27   57 1
@<TRIPOS>MOLECULE
ZINC19421035
   50    49     0     0     0
SMALL
USER_CHARGES
tert-butyl N-[(1S)-1-(1-ethylpropylcarbamoyl)-2-methyl-propyl]carbamate
@<TRIPOS>ATOM
      1 C1         -6.6366    0.4021   -2.6077 C.3       1 <0>        -0.1544
      2 C2         -7.0279    1.3819   -1.4996 C.3       1 <0>        -0.1311
      3 C3         -5.8215    2.2506   -1.1376 C.3       1 <0>         0.1457
      4 C4         -6.2443    3.3119   -0.1199 C.3       1 <0>        -0.1350
      5 C5         -5.0716    4.2573    0.1481 C.3       1 <0>        -0.1516
      6 N1         -4.7707    1.4100   -0.5585 N.am      1 <0>        -0.7298
      7 C6         -3.4824    1.8007   -0.6242 C.2       1 <0>         0.5182
      8 O1         -3.1843    2.8073   -1.2315 O.2       1 <0>        -0.5300
      9 C7         -2.4125    0.9868    0.0568 C.3       1 <0>         0.1557
     10 H1         -2.6808   -0.0796    0.0282 H         1 <0>         0.1074
     11 C8         -2.2421    1.4721    1.4977 C.3       1 <0>        -0.0976
     12 C9         -1.2652    0.5527    2.2334 C.3       1 <0>        -0.1401
     13 C10        -1.6932    2.9003    1.4933 C.3       1 <0>        -0.1532
     14 N2         -1.1468    1.1432   -0.6641 N.am      1 <0>        -0.7098
     15 C11        -0.2049    0.1822   -0.5885 C.2       1 <0>         0.6560
     16 O2         -0.4055   -0.8140    0.0777 O.2       1 <0>        -0.5671
     17 O3          0.9561    0.3235   -1.2555 O.3       1 <0>        -0.3637
     18 C12         1.9219   -0.7538   -1.1331 C.3       1 <0>         0.1390
     19 C13         1.3047   -2.0537   -1.6530 C.3       1 <0>        -0.1856
     20 C14         3.1683   -0.4170   -1.9541 C.3       1 <0>        -0.1446
     21 C15         2.3105   -0.9258    0.3367 C.3       1 <0>        -0.1861
     22 H2         -7.5039   -0.2225   -2.8680 H         1 <0>         0.0574
     23 H3         -5.8149   -0.2394   -2.2566 H         1 <0>         0.0552
     24 H4         -6.3097    0.9638   -3.4952 H         1 <0>         0.0552
     25 H5         -7.8496    2.0234   -1.8507 H         1 <0>         0.0792
     26 H6         -7.3549    0.8202   -0.6121 H         1 <0>         0.0699
     27 H7         -5.4001    2.7227   -2.0373 H         1 <0>         0.0905
     28 H8         -7.0937    3.8854   -0.5196 H         1 <0>         0.0714
     29 H9         -6.5421    2.8218    0.8188 H         1 <0>         0.0642
     30 H10        -5.3756    5.0203    0.8798 H         1 <0>         0.0470
     31 H11        -4.7739    4.7474   -0.7906 H         1 <0>         0.0595
     32 H12        -4.2223    3.6838    0.5478 H         1 <0>         0.0583
     33 H13        -5.0331    0.4600   -0.0701 H         1 <0>         0.4206
     34 H14        -3.2165    1.4552    2.0078 H         1 <0>         0.0819
     35 H15        -1.1427    0.9017    3.2694 H         1 <0>         0.0512
     36 H16        -0.2908    0.5696    1.7232 H         1 <0>         0.0603
     37 H17        -1.6597   -0.4741    2.2366 H         1 <0>         0.0626
     38 H18        -1.5707    3.2492    2.5293 H         1 <0>         0.0571
     39 H19        -2.3955    3.5614    0.9644 H         1 <0>         0.0642
     40 H20        -0.7188    2.9170    0.9831 H         1 <0>         0.0590
     41 H21        -0.9651    2.0450   -1.2672 H         1 <0>         0.4382
     42 H22         2.0364   -2.8698   -1.5602 H         1 <0>         0.0709
     43 H23         1.0254   -1.9300   -2.7097 H         1 <0>         0.0589
     44 H24         0.4086   -2.2958   -1.0628 H         1 <0>         0.0887
     45 H25         3.9000   -1.2331   -1.8614 H         1 <0>         0.0819
     46 H26         3.6121    0.5175   -1.5803 H         1 <0>         0.0674
     47 H27         2.8889   -0.2933   -3.0108 H         1 <0>         0.0672
     48 H28         3.0422   -1.7419    0.4294 H         1 <0>         0.0708
     49 H29         1.4144   -1.1679    0.9270 H         1 <0>         0.0896
     50 H30         2.7543    0.0088    0.7104 H         1 <0>         0.0592
@<TRIPOS>BOND
     1    1    2 1
     2    1   22 1
     3    1   23 1
     4    1   24 1
     5    2    3 1
     6    2   25 1
     7    2   26 1
     8    3    4 1
     9    3    6 1
    10    3   27 1
    11    4    5 1
    12    4   28 1
    13    4   29 1
    14    5   30 1
    15    5   31 1
    16    5   32 1
    17    6    7 am
    18    6   33 1
    19    7    8 2
    20    7    9 1
    21    9   10 1
    22    9   11 1
    23    9   14 1
    24   11   12 1
    25   11   13 1
    26   11   34 1
    27   12   35 1
    28   12   36 1
    29   12   37 1
    30   13   38 1
    31   13   39 1
    32   13   40 1
    33   14   15 am
    34   14   41 1
    35   15   16 2
    36   15   17 1
    37   17   18 1
    38   18   19 1
    39   18   20 1
    40   18   21 1
    41   19   42 1
    42   19   43 1
    43   19   44 1
    44   20   45 1
    45   20   46 1
    46   20   47 1
    47   21   48 1
    48   21   49 1
    49   21   50 1
@<TRIPOS>MOLECULE
ZINC06685570
   48    49     0     0     0
SMALL
USER_CHARGES

@<TRIPOS>ATOM
      1 C1         -0.0187    1.5258    0.0104 C.3       1 <0>        -0.1540
      2 C2          0.0021   -0.0041    0.0020 C.3       1 <0>        -0.1251
      3 C3          0.7182   -0.4975   -1.2568 C.3       1 <0>        -0.1202
      4 C4          0.7390   -2.0273   -1.2652 C.3       1 <0>        -0.1119
      5 C5          1.4551   -2.5207   -2.5240 C.3       1 <0>        -0.0711
      6 C6          1.4755   -4.0276   -2.5323 C.2       1 <0>        -0.0969
      7 C7          0.5839   -4.7731   -3.1619 C.2       1 <0>        -0.1006
      8 C8          0.8881   -6.2379   -2.9727 C.3       1 <0>        -0.1014
      9 C9          2.1522   -6.2887   -2.0966 C.3       1 <0>        -0.1368
     10 C10         2.4883   -4.8334   -1.8494 C.2       1 <0>         0.1647
     11 N1          3.4908   -4.3825   -1.1557 N.2       1 <0>        -0.2767
     12 N2          4.3857   -5.2774   -0.5549 N.pl3     1 <0>        -0.5388
     13 C11         5.4252   -4.8099    0.1644 C.2       1 <0>         0.5910
     14 S1          6.5188   -5.9035    0.8987 S.2       1 <0>        -0.6269
     15 N3          5.6037   -3.4815    0.3057 N.pl3     1 <0>        -0.6557
     16 C12         6.7336   -2.9733    1.0876 C.3       1 <0>         0.1218
     17 C13         6.7052   -1.4436    1.0899 C.3       1 <0>         0.0649
     18 H1          5.7707   -1.0838    1.5203 H         1 <0>         0.0792
     19 C14         7.9131   -0.8845    1.8832 C.3       1 <0>        -0.1461
     20 C15         8.0623    0.5216    1.2409 C.3       1 <0>        -0.1554
     21 C16         7.6538    0.2575   -0.2243 C.3       1 <0>         0.0502
     22 O1          6.8655   -0.9399   -0.2457 O.3       1 <0>        -0.3789
     23 H2          1.0039    1.9031    0.0027 H         1 <0>         0.0532
     24 H3         -0.5459    1.8868   -0.8726 H         1 <0>         0.0539
     25 H4         -0.5289    1.8773    0.9072 H         1 <0>         0.0535
     26 H5          0.5293   -0.3651    0.8851 H         1 <0>         0.0593
     27 H6         -1.0205   -0.3814    0.0098 H         1 <0>         0.0606
     28 H7          0.1910   -0.1364   -2.1398 H         1 <0>         0.0625
     29 H8          1.7408   -0.1202   -1.2645 H         1 <0>         0.0622
     30 H9          1.2661   -2.3884   -0.3821 H         1 <0>         0.0615
     31 H10        -0.2836   -2.4046   -1.2575 H         1 <0>         0.0623
     32 H11         0.9279   -2.1597   -3.4071 H         1 <0>         0.0759
     33 H12         2.4777   -2.1435   -2.5317 H         1 <0>         0.0760
     34 H13        -0.2476   -4.3867   -3.7326 H         1 <0>         0.1493
     35 H14         0.0589   -6.7326   -2.4668 H         1 <0>         0.0922
     36 H15         1.0783   -6.7107   -3.9363 H         1 <0>         0.0923
     37 H16         1.9453   -6.8015   -1.1573 H         1 <0>         0.0970
     38 H17         2.9666   -6.7796   -2.6294 H         1 <0>         0.0962
     39 H18         4.2572   -6.2335   -0.6566 H         1 <0>         0.4162
     40 H19         4.9841   -2.8619   -0.1103 H         1 <0>         0.4142
     41 H20         6.6608   -3.3396    2.1116 H         1 <0>         0.1029
     42 H21         7.6672   -3.3188    0.6437 H         1 <0>         0.0969
     43 H22         7.6838   -0.8086    2.9461 H         1 <0>         0.0905
     44 H23         8.8052   -1.4886    1.7179 H         1 <0>         0.0877
     45 H24         7.3854    1.2359    1.7096 H         1 <0>         0.0788
     46 H25         9.0943    0.8674    1.2996 H         1 <0>         0.0869
     47 H26         7.0640    1.0935   -0.6001 H         1 <0>         0.0704
     48 H27         8.5446    0.1261   -0.8385 H         1 <0>         0.0723
@<TRIPOS>BOND
     1    1    2 1
     2    1   23 1
     3    1   24 1
     4    1   25 1
     5    2    3 1
     6    2   26 1
     7    2   27 1
     8    3    4 1
     9    3   28 1
    10    3   29 1
    11    4    5 1
    12    4   30 1
    13    4   31 1
    14    5    6 1
    15    5   32 1
    16    5   33 1
    17    6   10 1
    18    6    7 2
    19    7    8 1
    20    7   34 1
    21    8    9 1
    22    8   35 1
    23    8   36 1
    24    9   10 1
    25    9   37 1
    26    9   38 1
    27   10   11 2
    28   11   12 1
    29   12   13 1
    30   12   39 1
    31   13   14 2
    32   13   15 1
    33   15   16 1
    34   15   40 1
    35   16   17 1
    36   16   41 1
    37   16   42 1
    38   17   18 1
    39   17   22 1
    40   17   19 1
    41   19   20 1
    42   19   43 1
    43   19   44 1
    44   20   21 1
    45   20   45 1
    46   20   46 1
    47   21   22 1
    48   21   47 1
    49   21   48 1
@<TRIPOS>MOLECULE
ZINC50405812
   43    43     0     0     0
SMALL
USER_CHARGES

@<TRIPOS>ATOM
      1 C1         -1.3502    0.7679    1.1840 C.3       1 <0>        -0.1534
      2 C2         -0.7512   -0.5953    0.8324 C.3       1 <0>        -0.1232
      3 C3          0.0224   -0.4885   -0.4833 C.3       1 <0>        -0.1309
      4 C4          0.6214   -1.8517   -0.8349 C.3       1 <0>         0.1394
      5 H1         -0.1693   -2.6017   -0.8553 H         1 <0>         0.0935
      6 C5          1.2884   -1.7764   -2.2098 C.3       1 <0>        -0.1373
      7 C6          1.7642   -3.1707   -2.6229 C.3       1 <0>        -0.1527
      8 N1          1.6190   -2.2212    0.1723 N.pl3     1 <0>        -0.7270
      9 C7          1.5386   -3.4594    0.8135 C.ar      1 <0>         0.2744
     10 C8          0.6068   -4.4008    0.3951 C.ar      1 <0>        -0.2197
     11 C9          0.5303   -5.6244    1.0310 C.ar      1 <0>         0.0292
     12 C10         1.3796   -5.9126    2.0835 C.ar      1 <0>        -0.7349
     13 C11         2.3084   -4.9778    2.5026 C.ar      1 <0>         0.0265
     14 C12         2.3942   -3.7545    1.8674 C.ar      1 <0>        -0.2174
     15 S1          1.2778   -7.4745    2.8928 S.o2      1 <0>         2.6983
     16 O1          1.8104   -7.2914    4.1974 O.2       1 <0>        -0.9626
     17 O2         -0.0376   -7.9631    2.6686 O.2       1 <0>        -0.9645
     18 N2          2.3062   -8.5037    2.1019 N.pl3     1 <0>        -1.1202
     19 C13         3.7497   -8.2545    2.1208 C.3       1 <0>         0.1115
     20 C14         4.4902   -9.5109    1.6582 C.3       1 <0>        -0.1609
     21 H2         -0.5496    1.4997    1.2916 H         1 <0>         0.0529
     22 H3         -2.0265    1.0834    0.3895 H         1 <0>         0.0541
     23 H4         -1.9012    0.6918    2.1214 H         1 <0>         0.0548
     24 H5         -0.0749   -0.9109    1.6269 H         1 <0>         0.0631
     25 H6         -1.5518   -1.3272    0.7248 H         1 <0>         0.0606
     26 H7         -0.6539   -0.1730   -1.2778 H         1 <0>         0.0764
     27 H8          0.8230    0.2433   -0.3757 H         1 <0>         0.0666
     28 H9          0.5710   -1.4057   -2.9419 H         1 <0>         0.0741
     29 H10         2.1420   -1.1003   -2.1630 H         1 <0>         0.0654
     30 H11         2.3870   -3.5908   -1.8331 H         1 <0>         0.0572
     31 H12         0.9008   -3.8155   -2.7866 H         1 <0>         0.0537
     32 H13         2.3438   -3.0989   -3.5432 H         1 <0>         0.0547
     33 H14         2.3354   -1.6059    0.3938 H         1 <0>         0.4026
     34 H15        -0.0574   -4.1761   -0.4264 H         1 <0>         0.1312
     35 H16        -0.1940   -6.3567    0.7062 H         1 <0>         0.1370
     36 H17         2.9703   -5.2061    3.3249 H         1 <0>         0.1374
     37 H18         3.1228   -3.0265    2.1922 H         1 <0>         0.1289
     38 H19         1.9527   -9.2716    1.6261 H         1 <0>         0.4177
     39 H20         3.9844   -7.4271    1.4512 H         1 <0>         0.0645
     40 H21         4.0615   -8.0014    3.1342 H         1 <0>         0.0797
     41 H22         4.2556  -10.3382    2.3279 H         1 <0>         0.0646
     42 H23         4.1785   -9.7640    0.6449 H         1 <0>         0.0623
     43 H24         5.5643   -9.3254    1.6722 H         1 <0>         0.0724
@<TRIPOS>BOND
     1    1    2 1
     2    1   21 1
     3    1   22 1
     4    1   23 1
     5    2    3 1
     6    2   24 1
     7    2   25 1
     8    3    4 1
     9    3   26 1
    10    3   27 1
    11    4    5 1
    12    4    6 1
    13    4    8 1
    14    6    7 1
    15    6   28 1
    16    6   29 1
    17    7   30 1
    18    7   31 1
    19    7   32 1
    20    8    9 1
    21    8   33 1
    22    9   14 ar
    23    9   10 ar
    24   10   11 ar
    25   10   34 1
    26   11   12 ar
    27   11   35 1
    28   12   13 ar
    29   12   15 1
    30   13   14 ar
    31   13   36 1
    32   14   37 1
    33   15   16 2
    34   15   17 2
    35   15   18 1
    36   18   19 1
    37   18   38 1
    38   19   20 1
    39   19   39 1
    40   19   40 1
    41   20   41 1
    42   20   42 1
    43   20   43 1
@<TRIPOS>MOLECULE
ZINC21079056
   43    44     0     0     0
SMALL
USER_CHARGES

@<TRIPOS>ATOM
      1 C1         -0.0187    1.5258    0.0104 C.3       1 <0>        -0.1485
      2 C2          0.0021   -0.0041    0.0020 C.3       1 <0>        -0.0892
      3 C3          0.7421   -0.5109    1.2415 C.3       1 <0>        -0.1543
      4 C4         -1.4333   -0.5336    0.0129 C.3       1 <0>        -0.1012
      5 C5         -1.4157   -2.0577   -0.1212 C.3       1 <0>        -0.0974
      6 S1         -3.1175   -2.6855   -0.1083 S.3       1 <0>        -0.0135
      7 C6         -2.9294   -4.4301   -0.2685 C.2       1 <0>         0.1572
      8 N1         -3.9378   -5.3562   -0.3149 N.pl3     1 <0>        -0.5903
      9 H1         -4.8917   -5.1872   -0.2668 H         1 <0>         0.4306
     10 C7         -3.3167   -6.5722   -0.4442 C.2       1 <0>         0.4638
     11 N2         -2.0265   -6.3458   -0.4694 N.2       1 <0>        -0.2909
     12 N3         -1.7984   -5.0850   -0.3714 N.2       1 <0>        -0.2700
     13 N4         -3.9377   -7.8091   -0.5312 N.pl3     1 <0>        -0.5499
     14 N5         -3.1674   -8.9721   -0.6611 N.2       1 <0>        -0.1961
     15 C8         -3.7512  -10.1347   -0.7429 C.2       1 <0>         0.0880
     16 C9         -2.9721  -11.3109   -0.8742 C.2       1 <0>        -0.1135
     17 C10        -3.5765  -12.5146   -0.9589 C.2       1 <0>        -0.0611
     18 C11        -2.7673  -13.7363   -1.0953 C.ar      1 <0>        -0.0689
     19 C12        -1.3716  -13.6545   -1.1317 C.ar      1 <0>        -0.1049
     20 C13        -0.6205  -14.8038   -1.2592 C.ar      1 <0>        -0.1201
     21 C14        -1.2442  -16.0359   -1.3511 C.ar      1 <0>        -0.1123
     22 C15        -2.6249  -16.1250   -1.3163 C.ar      1 <0>        -0.1222
     23 C16        -3.3898  -14.9855   -1.1834 C.ar      1 <0>        -0.1016
     24 H2          1.0039    1.9031    0.0027 H         1 <0>         0.0581
     25 H3         -0.5459    1.8868   -0.8726 H         1 <0>         0.0559
     26 H4         -0.5289    1.8773    0.9072 H         1 <0>         0.0561
     27 H5          0.5123   -0.3556   -0.8948 H         1 <0>         0.0749
     28 H6          1.7647   -0.1336    1.2338 H         1 <0>         0.0572
     29 H7          0.2319   -0.1594    2.1383 H         1 <0>         0.0564
     30 H8          0.7568   -1.6008    1.2356 H         1 <0>         0.0585
     31 H9         -1.9156   -0.2570    0.9504 H         1 <0>         0.0754
     32 H10        -1.9862   -0.1019   -0.8214 H         1 <0>         0.0751
     33 H11        -0.9334   -2.3344   -1.0587 H         1 <0>         0.0972
     34 H12        -0.8628   -2.4894    0.7131 H         1 <0>         0.1001
     35 H13        -4.9054   -7.8690   -0.5022 H         1 <0>         0.3970
     36 H14        -4.8286  -10.2015   -0.7106 H         1 <0>         0.1159
     37 H15        -1.8947  -11.2442   -0.9065 H         1 <0>         0.1332
     38 H16        -4.6539  -12.5813   -0.9266 H         1 <0>         0.1268
     39 H17        -0.8835  -12.6938   -1.0604 H         1 <0>         0.1290
     40 H18         0.4574  -14.7423   -1.2878 H         1 <0>         0.1255
     41 H19        -0.6504  -16.9324   -1.4508 H         1 <0>         0.1234
     42 H20        -3.1043  -17.0900   -1.3893 H         1 <0>         0.1248
     43 H21        -4.4670  -15.0571   -1.1516 H         1 <0>         0.1259
@<TRIPOS>BOND
     1    1    2 1
     2    1   24 1
     3    1   25 1
     4    1   26 1
     5    2    3 1
     6    2    4 1
     7    2   27 1
     8    3   28 1
     9    3   29 1
    10    3   30 1
    11    4    5 1
    12    4   31 1
    13    4   32 1
    14    5    6 1
    15    5   33 1
    16    5   34 1
    17    6    7 1
    18    7   12 2
    19    7    8 1
    20    8    9 1
    21    8   10 1
    22   10   11 2
    23   10   13 1
    24   11   12 1
    25   13   14 1
    26   13   35 1
    27   14   15 2
    28   15   16 1
    29   15   36 1
    30   16   17 2
    31   16   37 1
    32   17   18 1
    33   17   38 1
    34   18   23 ar
    35   18   19 ar
    36   19   20 ar
    37   19   39 1
    38   20   21 ar
    39   20   40 1
    40   21   22 ar
    41   21   41 1
    42   22   23 ar
    43   22   42 1
    44   23   43 1
@<TRIPOS>MOLECULE
ZINC66189182
   46    47     0     0     0
SMALL
USER_CHARGES

@<TRIPOS>ATOM
      1 C1         -0.0187    1.5258    0.0104 C.3       1 <0>        -0.1526
      2 C2          0.0021   -0.0041    0.0020 C.3       1 <0>         0.0590
      3 O1          0.6709   -0.4649   -1.1737 O.3       1 <0>        -0.3222
      4 C3          0.7768   -1.8111   -1.3363 C.ar      1 <0>         0.0583
      5 C4          0.2439   -2.6689   -0.3884 C.ar      1 <0>        -0.1636
      6 C5          0.3523   -4.0374   -0.5549 C.ar      1 <0>        -0.1385
      7 C6          0.9925   -4.5537   -1.6662 C.ar      1 <0>        -0.1064
      8 C7          1.5271   -3.7045   -2.6168 C.ar      1 <0>        -0.1669
      9 C8          1.4167   -2.3306   -2.4595 C.ar      1 <0>         0.1939
     10 N1          1.9517   -1.4686   -3.4237 N.pl3     1 <0>        -0.7422
     11 C9          2.6241   -2.0170   -4.6041 C.3       1 <0>         0.1190
     12 C10         3.1126   -0.8704   -5.4915 C.3       1 <0>         0.1190
     13 N2          3.7850   -1.4188   -6.6719 N.pl3     1 <0>        -0.7422
     14 C11         4.3200   -0.5568   -7.6362 C.ar      1 <0>         0.1938
     15 C12         4.2197    0.8171   -7.4732 C.ar      1 <0>        -0.1669
     16 C13         4.7492    1.6663   -8.4266 C.ar      1 <0>        -0.1065
     17 C14         5.3790    1.1499   -9.5438 C.ar      1 <0>        -0.1385
     18 C15         5.4828   -0.2186   -9.7130 C.ar      1 <0>        -0.1637
     19 C16         4.9599   -1.0763   -8.7594 C.ar      1 <0>         0.0584
     20 O2          5.0662   -2.4225   -8.9217 O.3       1 <0>        -0.3223
     21 C17         5.7351   -2.8834  -10.0975 C.3       1 <0>         0.0590
     22 C18         5.7564   -4.4132  -10.1056 C.3       1 <0>        -0.1527
     23 H1          1.0039    1.9031    0.0027 H         1 <0>         0.0656
     24 H2         -0.5459    1.8868   -0.8726 H         1 <0>         0.0656
     25 H3         -0.5289    1.8773    0.9072 H         1 <0>         0.0783
     26 H4          0.5293   -0.3651    0.8851 H         1 <0>         0.0600
     27 H5         -1.0205   -0.3814    0.0098 H         1 <0>         0.0600
     28 H6         -0.2563   -2.2688    0.4812 H         1 <0>         0.1264
     29 H7         -0.0639   -4.7046    0.1853 H         1 <0>         0.1214
     30 H8          1.0754   -5.6232   -1.7917 H         1 <0>         0.1228
     31 H9          2.0267   -4.1105   -3.4840 H         1 <0>         0.1264
     32 H10         1.8772   -0.5082   -3.3105 H         1 <0>         0.4059
     33 H11         3.4752   -2.6210   -4.2896 H         1 <0>         0.0650
     34 H12         1.9253   -2.6380   -5.1647 H         1 <0>         0.0650
     35 H13         2.2615   -0.2664   -5.8061 H         1 <0>         0.0650
     36 H14         3.8114   -0.2495   -4.9310 H         1 <0>         0.0650
     37 H15         3.8595   -2.3793   -6.7852 H         1 <0>         0.4059
     38 H16         3.7276    1.2232   -6.6018 H         1 <0>         0.1264
     39 H17         4.6706    2.7358   -8.2987 H         1 <0>         0.1228
     40 H18         5.7907    1.8171  -10.2866 H         1 <0>         0.1214
     41 H19         5.9751   -0.6187  -10.5870 H         1 <0>         0.1264
     42 H20         5.2076   -2.5227  -10.9805 H         1 <0>         0.0600
     43 H21         6.7575   -2.5057  -10.1054 H         1 <0>         0.0600
     44 H22         6.2838   -4.7739   -9.2225 H         1 <0>         0.0656
     45 H23         4.7339   -4.7909  -10.0976 H         1 <0>         0.0656
     46 H24         6.2665   -4.7647  -11.0024 H         1 <0>         0.0783
@<TRIPOS>BOND
     1    1    2 1
     2    1   23 1
     3    1   24 1
     4    1   25 1
     5    2    3 1
     6    2   26 1
     7    2   27 1
     8    3    4 1
     9    4    9 ar
    10    4    5 ar
    11    5    6 ar
    12    5   28 1
    13    6    7 ar
    14    6   29 1
    15    7    8 ar
    16    7   30 1
    17    8    9 ar
    18    8   31 1
    19    9   10 1
    20   10   11 1
    21   10   32 1
    22   11   12 1
    23   11   33 1
    24   11   34 1
    25   12   13 1
    26   12   35 1
    27   12   36 1
    28   13   14 1
    29   13   37 1
    30   14   19 ar
    31   14   15 ar
    32   15   16 ar
    33   15   38 1
    34   16   17 ar
    35   16   39 1
    36   17   18 ar
    37   17   40 1
    38   18   19 ar
    39   18   41 1
    40   19   20 1
    41   20   21 1
    42   21   22 1
    43   21   42 1
    44   21   43 1
    45   22   44 1
    46   22   45 1
    47   22   46 1
@<TRIPOS>MOLECULE
ZINC12843938
   35    36     0     0     0
SMALL
USER_CHARGES
1-allyl-3-[[5-(4-fluorophenyl)-2-furyl]methyleneamino]thiourea
@<TRIPOS>ATOM
      1 C1         -5.6872   -0.4057   -0.3463 C.2       1 <0>        -0.1507
      2 C2         -4.7073   -0.1923    0.4965 C.2       1 <0>        -0.1889
      3 C3         -3.4763   -1.0608    0.4563 C.3       1 <0>         0.1461
      4 N1         -2.2881   -0.2170    0.3069 N.pl3     1 <0>        -0.6597
      5 C4         -1.0650   -0.7801    0.2472 C.2       1 <0>         0.5834
      6 S1         -0.9000   -2.4812    0.3460 S.2       1 <0>        -0.6149
      7 N2          0.0282   -0.0038    0.1097 N.pl3     1 <0>        -0.5335
      8 N3         -0.1068    1.3883    0.0289 N.2       1 <0>        -0.2798
      9 C5          0.9524    2.1430   -0.0231 C.2       1 <0>         0.1922
     10 C6          2.2779    1.5359   -0.1622 C.2       1 <0>        -0.0686
     11 C7          3.4818    2.2029   -0.1121 C.2       1 <0>        -0.1231
     12 C8          4.4850    1.2404   -0.2897 C.2       1 <0>        -0.1947
     13 C9          3.8629    0.0367   -0.4396 C.2       1 <0>         0.0747
     14 O1          2.5322    0.2257   -0.3557 O.3       1 <0>        -0.1769
     15 C10         4.5363   -1.2596   -0.6527 C.ar      1 <0>        -0.0485
     16 C11         5.9301   -1.3227   -0.7212 C.ar      1 <0>        -0.0602
     17 C12         6.5538   -2.5370   -0.9156 C.ar      1 <0>        -0.1517
     18 C13         5.8001   -3.6921   -1.0530 C.ar      1 <0>         0.1164
     19 C14         4.4166   -3.6349   -0.9911 C.ar      1 <0>        -0.1475
     20 C15         3.7820   -2.4270   -0.7923 C.ar      1 <0>        -0.0623
     21 F1          6.4164   -4.8784   -1.2484 F         1 <0>        -0.1324
     22 H1         -6.5694    0.2167   -0.3174 H         1 <0>         0.1075
     23 H2         -5.6130   -1.2040   -1.0698 H         1 <0>         0.1040
     24 H3         -4.7815    0.6060    1.2201 H         1 <0>         0.1173
     25 H4         -3.5432   -1.7469   -0.3880 H         1 <0>         0.0940
     26 H5         -3.4033   -1.6305    1.3826 H         1 <0>         0.0986
     27 H6         -2.3815    0.7468    0.2509 H         1 <0>         0.4109
     28 H7          0.9085   -0.4090    0.0668 H         1 <0>         0.4218
     29 H8          0.8539    3.2168    0.0363 H         1 <0>         0.2188
     30 H9          3.6252    3.2631    0.0352 H         1 <0>         0.1679
     31 H10         5.5501    1.4187   -0.3049 H         1 <0>         0.1639
     32 H11         6.5182   -0.4227   -0.6184 H         1 <0>         0.1416
     33 H12         7.6315   -2.5876   -0.9650 H         1 <0>         0.1457
     34 H13         3.8345   -4.5382   -1.0992 H         1 <0>         0.1458
     35 H14         2.7039   -2.3836   -0.7450 H         1 <0>         0.1426
@<TRIPOS>BOND
     1    1    2 2
     2    1   22 1
     3    1   23 1
     4    2    3 1
     5    2   24 1
     6    3    4 1
     7    3   25 1
     8    3   26 1
     9    4    5 1
    10    4   27 1
    11    5    6 2
    12    5    7 1
    13    7    8 1
    14    7   28 1
    15    8    9 2
    16    9   10 1
    17    9   29 1
    18   10   14 1
    19   10   11 2
    20   11   12 1
    21   11   30 1
    22   12   13 2
    23   12   31 1
    24   13   14 1
    25   13   15 1
    26   15   20 ar
    27   15   16 ar
    28   16   17 ar
    29   16   32 1
    30   17   18 ar
    31   17   33 1
    32   18   19 ar
    33   18   21 1
    34   19   20 ar
    35   19   34 1
    36   20   35 1
@<TRIPOS>MOLECULE
ZINC37092335
   43    43     0     0     0
SMALL
USER_CHARGES

@<TRIPOS>ATOM
      1 C1         -0.2896    1.7047    0.1368 C.3       1 <0>        -0.1704
      2 C2         -0.0738    0.1945    0.0200 C.3       1 <0>         0.1470
      3 H1          0.4594   -0.0259   -0.9048 H         1 <0>         0.0791
      4 C3          0.7489   -0.2969    1.2127 C.3       1 <0>        -0.1284
      5 C4          1.0708   -1.7819    1.0331 C.3       1 <0>        -0.1136
      6 C5          1.8936   -2.2733    2.2257 C.3       1 <0>        -0.0981
      7 C6          1.0463   -2.1936    3.4973 C.3       1 <0>        -0.1497
      8 C7          2.3212   -3.7229    1.9878 C.3       1 <0>        -0.1490
      9 N1         -1.3718   -0.4849    0.0090 N.pl3     1 <0>        -0.7399
     10 C8         -2.0763   -0.6281   -1.1912 C.ar      1 <0>         0.2117
     11 C9         -1.5427   -0.1313   -2.3733 C.ar      1 <0>        -0.1789
     12 C10        -2.2379   -0.2732   -3.5577 C.ar      1 <0>        -0.0678
     13 C11        -3.4704   -0.9123   -3.5671 C.ar      1 <0>         0.0926
     14 C12        -4.0040   -1.4090   -2.3856 C.ar      1 <0>        -0.0884
     15 C13        -3.3067   -1.2721   -1.2017 C.ar      1 <0>        -0.1780
     16 N2         -4.1763   -1.0559   -4.7699 N.am      1 <0>        -0.6459
     17 C14        -3.5076   -1.2244   -5.9278 C.2       1 <0>         0.6441
     18 O1         -2.2988   -1.3488   -5.9188 O.2       1 <0>        -0.5549
     19 O2         -4.1789   -1.2549   -7.0947 O.3       1 <0>        -0.3646
     20 C15        -3.4063   -1.4368   -8.2830 C.3       1 <0>         0.0534
     21 H2          0.6761    2.2101    0.1449 H         1 <0>         0.0632
     22 H3         -0.8758    2.0547   -0.7129 H         1 <0>         0.0597
     23 H4         -0.8229    1.9250    1.0615 H         1 <0>         0.0576
     24 H5          1.6771    0.2714    1.2726 H         1 <0>         0.0764
     25 H6          0.1776   -0.1574    2.1304 H         1 <0>         0.0700
     26 H7          0.1426   -2.3502    0.9731 H         1 <0>         0.0647
     27 H8          1.6421   -1.9214    0.1153 H         1 <0>         0.0618
     28 H9          2.7787   -1.6473    2.3391 H         1 <0>         0.0685
     29 H10         1.6325   -2.5437    4.3469 H         1 <0>         0.0530
     30 H11         0.7417   -1.1609    3.6668 H         1 <0>         0.0556
     31 H12         0.1612   -2.8196    3.3839 H         1 <0>         0.0534
     32 H13         2.9247   -3.7796    1.0819 H         1 <0>         0.0539
     33 H14         2.9073   -4.0730    2.8374 H         1 <0>         0.0539
     34 H15         1.4360   -4.3488    1.8744 H         1 <0>         0.0537
     35 H16        -1.7427   -0.8354    0.8339 H         1 <0>         0.3980
     36 H17        -0.5841    0.3662   -2.3660 H         1 <0>         0.1255
     37 H18        -1.8231    0.1134   -4.4769 H         1 <0>         0.1330
     38 H19        -4.9628   -1.9062   -2.3931 H         1 <0>         0.1264
     39 H20        -3.7199   -1.6623   -0.2834 H         1 <0>         0.1250
     40 H21        -5.1461   -1.0338   -4.7686 H         1 <0>         0.4152
     41 H22        -2.8722   -2.3854   -8.2275 H         1 <0>         0.0627
     42 H23        -4.0679   -1.4426   -9.1492 H         1 <0>         0.1058
     43 H24        -2.6895   -0.6213   -8.3788 H         1 <0>         0.0625
@<TRIPOS>BOND
     1    1    2 1
     2    1   21 1
     3    1   22 1
     4    1   23 1
     5    2    3 1
     6    2    4 1
     7    2    9 1
     8    4    5 1
     9    4   24 1
    10    4   25 1
    11    5    6 1
    12    5   26 1
    13    5   27 1
    14    6    7 1
    15    6    8 1
    16    6   28 1
    17    7   29 1
    18    7   30 1
    19    7   31 1
    20    8   32 1
    21    8   33 1
    22    8   34 1
    23    9   10 1
    24    9   35 1
    25   10   15 ar
    26   10   11 ar
    27   11   12 ar
    28   11   36 1
    29   12   13 ar
    30   12   37 1
    31   13   14 ar
    32   13   16 1
    33   14   15 ar
    34   14   38 1
    35   15   39 1
    36   16   17 am
    37   16   40 1
    38   17   18 2
    39   17   19 1
    40   19   20 1
    41   20   41 1
    42   20   42 1
    43   20   43 1
@<TRIPOS>MOLECULE
ZINC47435312
   46    47     0     0     0
SMALL
USER_CHARGES

@<TRIPOS>ATOM
      1 C1          0.1458    1.9226    0.4544 C.3       1 <0>        -0.1516
      2 C2          0.2070    0.3986    0.3346 C.3       1 <0>        -0.0495
      3 C3         -1.1920   -0.1550    0.2470 C.2       1 <0>         0.0287
      4 C4         -1.8865   -0.3617   -0.8936 C.2       1 <0>        -0.2220
      5 C5         -3.1364   -0.8848   -0.5271 C.2       1 <0>        -0.1110
      6 C6         -3.1412   -0.9719    0.8356 C.2       1 <0>        -0.0891
      7 O1         -1.9494   -0.5285    1.2865 O.3       1 <0>        -0.1611
      8 C7         -4.2465   -1.4652    1.6637 C.2       1 <0>         0.6048
      9 O2         -5.2774   -1.8442    1.1396 O.2       1 <0>        -0.5202
     10 N1         -4.1207   -1.4987    3.0051 N.am      1 <0>        -0.7157
     11 C8         -5.2248   -1.9915    3.8324 C.3       1 <0>         0.1049
     12 C9         -4.8260   -1.9244    5.3079 C.3       1 <0>         0.1397
     13 H1         -4.6890   -0.8833    5.6003 H         1 <0>         0.0993
     14 C10        -5.9276   -2.5535    6.1631 C.3       1 <0>        -0.1032
     15 C11        -5.4900   -2.5674    7.6291 C.3       1 <0>        -0.1430
     16 C12        -7.2127   -1.7351    6.0223 C.3       1 <0>        -0.1526
     17 N2         -3.5733   -2.6570    5.5090 N.pl3     1 <0>        -0.7423
     18 C13        -2.4797   -2.0211    6.1011 C.ar      1 <0>         0.2163
     19 C14        -2.5284   -0.6592    6.3705 C.ar      1 <0>        -0.2022
     20 C15        -1.4455   -0.0337    6.9564 C.ar      1 <0>        -0.0709
     21 C16        -0.3134   -0.7614    7.2745 C.ar      1 <0>        -0.1775
     22 C17        -0.2617   -2.1173    7.0077 C.ar      1 <0>        -0.0712
     23 C18        -1.3432   -2.7502    6.4271 C.ar      1 <0>        -0.1937
     24 H2          1.1576    2.3230    0.5177 H         1 <0>         0.0699
     25 H3         -0.3544    2.3362   -0.4213 H         1 <0>         0.0616
     26 H4         -0.4094    2.1945    1.3521 H         1 <0>         0.0596
     27 H5          0.7622    0.1267   -0.5631 H         1 <0>         0.0992
     28 H6          0.7072   -0.0149    1.2103 H         1 <0>         0.0858
     29 H7         -1.5444   -0.1616   -1.8982 H         1 <0>         0.1574
     30 H8         -3.9389   -1.1640   -1.1937 H         1 <0>         0.1608
     31 H9         -3.2990   -1.1966    3.4229 H         1 <0>         0.4077
     32 H10        -6.1073   -1.3736    3.6660 H         1 <0>         0.0853
     33 H11        -5.4480   -3.0238    3.5629 H         1 <0>         0.0750
     34 H12        -6.1088   -3.5749    5.8284 H         1 <0>         0.0759
     35 H13        -5.3840   -1.5431    7.9864 H         1 <0>         0.0537
     36 H14        -6.2398   -3.0851    8.2273 H         1 <0>         0.0555
     37 H15        -4.5343   -3.0840    7.7181 H         1 <0>         0.0600
     38 H16        -7.5245   -1.7252    4.9779 H         1 <0>         0.0603
     39 H17        -7.9975   -2.1834    6.6315 H         1 <0>         0.0619
     40 H18        -7.0315   -0.7138    6.3571 H         1 <0>         0.0579
     41 H19        -3.5034   -3.5836    5.2309 H         1 <0>         0.4010
     42 H20        -3.4119   -0.0901    6.1217 H         1 <0>         0.1197
     43 H21        -1.4827    1.0251    7.1662 H         1 <0>         0.1194
     44 H22         0.5323   -0.2696    7.7320 H         1 <0>         0.1174
     45 H23         0.6240   -2.6827    7.2573 H         1 <0>         0.1199
     46 H24        -1.3038   -3.8100    6.2231 H         1 <0>         0.1182
@<TRIPOS>BOND
     1    1    2 1
     2    1   24 1
     3    1   25 1
     4    1   26 1
     5    2    3 1
     6    2   27 1
     7    2   28 1
     8    3    7 1
     9    3    4 2
    10    4    5 1
    11    4   29 1
    12    5    6 2
    13    5   30 1
    14    6    7 1
    15    6    8 1
    16    8    9 2
    17    8   10 am
    18   10   11 1
    19   10   31 1
    20   11   12 1
    21   11   32 1
    22   11   33 1
    23   12   13 1
    24   12   14 1
    25   12   17 1
    26   14   15 1
    27   14   16 1
    28   14   34 1
    29   15   35 1
    30   15   36 1
    31   15   37 1
    32   16   38 1
    33   16   39 1
    34   16   40 1
    35   17   18 1
    36   17   41 1
    37   18   23 ar
    38   18   19 ar
    39   19   20 ar
    40   19   42 1
    41   20   21 ar
    42   20   43 1
    43   21   22 ar
    44   21   44 1
    45   22   23 ar
    46   22   45 1
    47   23   46 1
@<TRIPOS>MOLECULE
ZINC55879817
   44    44     0     0     0
SMALL
USER_CHARGES

@<TRIPOS>ATOM
      1 C1         -0.0187    1.5258    0.0104 C.3       1 <0>        -0.1387
      2 C2          0.0021   -0.0041    0.0020 C.3       1 <0>        -0.1045
      3 S1          0.8511   -0.5891   -1.4904 S.3       1 <0>        -0.1293
      4 C3          0.7923   -2.3448   -1.3538 C.ar      1 <0>        -0.1535
      5 C4          0.1751   -2.9374   -0.2618 C.ar      1 <0>        -0.0854
      6 C5          0.1298   -4.3151   -0.1571 C.ar      1 <0>        -0.1576
      7 C6          0.6988   -5.1062   -1.1381 C.ar      1 <0>        -0.0741
      8 C7          1.3165   -4.5242   -2.2298 C.ar      1 <0>        -0.1849
      9 C8          1.3613   -3.1434   -2.3464 C.ar      1 <0>         0.2374
     10 N1          1.9808   -2.5520   -3.4540 N.pl3     1 <0>        -0.7328
     11 C9          2.5775   -3.3926   -4.4950 C.3       1 <0>         0.1077
     12 C10         3.1739   -2.5172   -5.5669 C.2       1 <0>         0.5111
     13 O1          3.1071   -1.3100   -5.4708 O.2       1 <0>        -0.5137
     14 N2          3.7815   -3.0757   -6.6324 N.am      1 <0>        -0.7180
     15 C11         4.3613   -2.2247   -7.6744 C.3       1 <0>         0.2836
     16 C12         3.2648   -1.3527   -8.2894 C.3       1 <0>        -0.1686
     17 C13         5.3992   -1.3640   -7.0839 C.1       1 <0>         0.2026
     18 N3          6.2002   -0.6998   -6.6282 N.1       1 <0>        -0.4069
     19 C14         4.9845   -3.1026   -8.7616 C.3       1 <0>        -0.0932
     20 C15         5.4790   -2.2195   -9.9090 C.3       1 <0>        -0.1549
     21 C16         6.1624   -3.8826   -8.1742 C.3       1 <0>        -0.1579
     22 H1          1.0039    1.9031    0.0027 H         1 <0>         0.0664
     23 H2         -0.5459    1.8868   -0.8726 H         1 <0>         0.0666
     24 H3         -0.5289    1.8773    0.9072 H         1 <0>         0.0759
     25 H4          0.5293   -0.3651    0.8851 H         1 <0>         0.0866
     26 H5         -1.0205   -0.3814    0.0098 H         1 <0>         0.0869
     27 H6         -0.2697   -2.3225    0.5066 H         1 <0>         0.1219
     28 H7         -0.3511   -4.7749    0.6936 H         1 <0>         0.1227
     29 H8          0.6609   -6.1821   -1.0512 H         1 <0>         0.1250
     30 H9          1.7601   -5.1453   -2.9939 H         1 <0>         0.1258
     31 H10         2.0149   -1.5858   -3.5321 H         1 <0>         0.4147
     32 H11         3.3587   -4.0138   -4.0569 H         1 <0>         0.0942
     33 H12         1.8089   -4.0299   -4.9322 H         1 <0>         0.0971
     34 H13         3.8350   -4.0412   -6.7092 H         1 <0>         0.4122
     35 H14         2.8208   -0.7274   -7.5149 H         1 <0>         0.0866
     36 H15         3.6961   -0.7196   -9.0647 H         1 <0>         0.0802
     37 H16         2.4962   -1.9901   -8.7267 H         1 <0>         0.0804
     38 H17         4.2370   -3.8014   -9.1371 H         1 <0>         0.1020
     39 H18         6.2265   -1.5206   -9.5334 H         1 <0>         0.0574
     40 H19         5.9230   -2.8449  -10.6835 H         1 <0>         0.0710
     41 H20         4.6399   -1.6637  -10.3274 H         1 <0>         0.0699
     42 H21         6.6064   -4.5080   -8.9488 H         1 <0>         0.0711
     43 H22         6.9099   -3.1838   -7.7987 H         1 <0>         0.0573
     44 H23         5.8101   -4.5118   -7.3568 H         1 <0>         0.0599
@<TRIPOS>BOND
     1    1    2 1
     2    1   22 1
     3    1   23 1
     4    1   24 1
     5    2    3 1
     6    2   25 1
     7    2   26 1
     8    3    4 1
     9    4    9 ar
    10    4    5 ar
    11    5    6 ar
    12    5   27 1
    13    6    7 ar
    14    6   28 1
    15    7    8 ar
    16    7   29 1
    17    8    9 ar
    18    8   30 1
    19    9   10 1
    20   10   11 1
    21   10   31 1
    22   11   12 1
    23   11   32 1
    24   11   33 1
    25   12   13 2
    26   12   14 am
    27   14   15 1
    28   14   34 1
    29   15   16 1
    30   15   17 1
    31   15   19 1
    32   16   35 1
    33   16   36 1
    34   16   37 1
    35   17   18 3
    36   19   20 1
    37   19   21 1
    38   19   38 1
    39   20   39 1
    40   20   40 1
    41   20   41 1
    42   21   42 1
    43   21   43 1
    44   21   44 1
@<TRIPOS>MOLECULE
ZINC62122963
   40    40     0     0     0
SMALL
USER_CHARGES

@<TRIPOS>ATOM
      1 C1          2.6331    2.0262   -2.3309 C.3       1 <0>        -0.1526
      2 C2          1.7846    0.8220   -1.9178 C.3       1 <0>        -0.1297
      3 C3          2.1129   -0.3676   -2.8222 C.3       1 <0>         0.1092
      4 N1          1.3004   -1.5207   -2.4266 N.pl3     1 <0>        -1.1156
      5 S1          1.1623   -2.8230   -3.4401 S.o2      1 <0>         2.7823
      6 O1          0.4322   -3.8143   -2.7304 O.2       1 <0>        -0.9602
      7 O2          0.7351   -2.3161   -4.6969 O.2       1 <0>        -0.9763
      8 N2          2.6862   -3.4300   -3.6678 N.pl3     1 <0>        -1.0670
      9 C4          3.6887   -3.1702   -2.7305 C.ar      1 <0>         0.1466
     10 C5          3.4915   -3.4907   -1.3933 C.ar      1 <0>        -0.0913
     11 C6          4.4850   -3.2329   -0.4693 C.ar      1 <0>        -0.1043
     12 C7          5.6748   -2.6559   -0.8739 C.ar      1 <0>        -0.1145
     13 C8          5.8744   -2.3356   -2.2042 C.ar      1 <0>        -0.1083
     14 C9          4.8873   -2.5960   -3.1344 C.ar      1 <0>        -0.0839
     15 C10         5.1081   -2.2523   -4.5850 C.3       1 <0>        -0.0845
     16 C11         4.5178   -0.8715   -4.8776 C.3       1 <0>        -0.1568
     17 C12         2.1947   -4.1186   -0.9514 C.3       1 <0>        -0.1004
     18 C13         1.8292   -5.2585   -1.9043 C.3       1 <0>        -0.1354
     19 H1          3.6897    1.7767   -2.2337 H         1 <0>         0.0579
     20 H2          2.4150    2.2862   -3.3667 H         1 <0>         0.0584
     21 H3          2.3992    2.8737   -1.6866 H         1 <0>         0.0615
     22 H4          2.0027    0.5620   -0.8820 H         1 <0>         0.0704
     23 H5          0.7280    1.0715   -2.0149 H         1 <0>         0.0713
     24 H6          1.8948   -0.1076   -3.8580 H         1 <0>         0.0781
     25 H7          3.1695   -0.6172   -2.7250 H         1 <0>         0.0738
     26 H8          0.8434   -1.5213   -1.5710 H         1 <0>         0.4201
     27 H9          2.8826   -3.9660   -4.4520 H         1 <0>         0.4246
     28 H10         4.3323   -3.4818    0.5704 H         1 <0>         0.1273
     29 H11         6.4498   -2.4547   -0.1491 H         1 <0>         0.1259
     30 H12         6.8048   -1.8851   -2.5169 H         1 <0>         0.1267
     31 H13         6.1772   -2.2429   -4.7975 H         1 <0>         0.0760
     32 H14         4.6194   -2.9970   -5.2133 H         1 <0>         0.0714
     33 H15         3.4487   -0.8809   -4.6651 H         1 <0>         0.0565
     34 H16         5.0065   -0.1268   -4.2493 H         1 <0>         0.0597
     35 H17         4.6775   -0.6229   -5.9268 H         1 <0>         0.0629
     36 H18         2.3072   -4.5116    0.0590 H         1 <0>         0.0788
     37 H19         1.4048   -3.3676   -0.9633 H         1 <0>         0.0752
     38 H20         0.8029   -5.5739   -1.7166 H         1 <0>         0.0736
     39 H21         1.9209   -4.9144   -2.9345 H         1 <0>         0.0615
     40 H22         2.5035   -6.0991   -1.7406 H         1 <0>         0.0312
@<TRIPOS>BOND
     1    1    2 1
     2    1   19 1
     3    1   20 1
     4    1   21 1
     5    2    3 1
     6    2   22 1
     7    2   23 1
     8    3    4 1
     9    3   24 1
    10    3   25 1
    11    4    5 1
    12    4   26 1
    13    5    6 2
    14    5    7 2
    15    5    8 1
    16    8    9 1
    17    8   27 1
    18    9   14 ar
    19    9   10 ar
    20   10   11 ar
    21   10   17 1
    22   11   12 ar
    23   11   28 1
    24   12   13 ar
    25   12   29 1
    26   13   14 ar
    27   13   30 1
    28   14   15 1
    29   15   16 1
    30   15   31 1
    31   15   32 1
    32   16   33 1
    33   16   34 1
    34   16   35 1
    35   17   18 1
    36   17   36 1
    37   17   37 1
    38   18   38 1
    39   18   39 1
    40   18   40 1
@<TRIPOS>MOLECULE
ZINC20313758
   34    34     0     0     0
SMALL
USER_CHARGES
(2R)-2-[(2,4-dichlorophenyl)amino]-N-(2-methoxyethyl)propanamide
@<TRIPOS>ATOM
      1 C1          3.0121   -2.9204   -1.4798 C.3       1 <0>        -0.1661
      2 C2          2.5187   -2.7906   -0.0374 C.3       1 <0>         0.1324
      3 H1          3.2279   -2.2112    0.5721 H         1 <0>         0.1077
      4 C3          2.3375   -4.1636    0.5570 C.2       1 <0>         0.5130
      5 O1          1.2464   -4.5130    0.9548 O.2       1 <0>        -0.5362
      6 N1          3.3880   -5.0031    0.6464 N.am      1 <0>        -0.7298
      7 C4          3.2119   -6.3378    1.2242 C.3       1 <0>         0.1233
      8 C5          4.5490   -7.0813    1.2075 C.3       1 <0>         0.0462
      9 O2          5.4750   -6.4157    2.0687 O.3       1 <0>        -0.3897
     10 C6          6.7626   -7.0328    2.1257 C.3       1 <0>         0.0272
     11 N2          1.2384   -2.0787   -0.0214 N.pl3     1 <0>        -0.7343
     12 C7          1.2159   -0.6808   -0.0132 C.ar      1 <0>         0.2451
     13 C8          2.4063    0.0343   -0.0207 C.ar      1 <0>        -0.1867
     14 C9          2.3813    1.4152   -0.0130 C.ar      1 <0>        -0.0506
     15 C10         1.1715    2.0870    0.0021 C.ar      1 <0>        -0.0883
     16 C11        -0.0167    1.3779    0.0096 C.ar      1 <0>        -0.0487
     17 C12         0.0021   -0.0041    0.0020 C.ar      1 <0>        -0.1061
     18 Cl1        -1.4887   -0.8935    0.0109 Cl        1 <0>        -0.0573
     19 Cl2         1.1445    3.8228    0.0116 Cl        1 <0>        -0.0674
     20 H2          3.1444   -1.9183   -1.9136 H         1 <0>         0.0752
     21 H3          2.2732   -3.4813   -2.0710 H         1 <0>         0.0683
     22 H4          3.9734   -3.4549   -1.4918 H         1 <0>         0.0721
     23 H5          4.3776   -4.6862    0.2855 H         1 <0>         0.4265
     24 H6          2.8572   -6.2445    2.2612 H         1 <0>         0.0776
     25 H7          2.4731   -6.8987    0.6330 H         1 <0>         0.0843
     26 H8          4.3991   -8.1132    1.5578 H         1 <0>         0.0689
     27 H9          4.9474   -7.0963    0.1823 H         1 <0>         0.0593
     28 H10         7.4125   -6.4629    2.8061 H         1 <0>         0.0899
     29 H11         7.2073   -7.0468    1.1197 H         1 <0>         0.0439
     30 H12         6.6591   -8.0637    2.4952 H         1 <0>         0.0442
     31 H13         0.2948   -2.6440   -0.0158 H         1 <0>         0.4364
     32 H14         3.3509   -0.4891   -0.0329 H         1 <0>         0.1387
     33 H15         3.3070    1.9714   -0.0192 H         1 <0>         0.1384
     34 H16        -0.9594    1.9048    0.0169 H         1 <0>         0.1425
@<TRIPOS>BOND
     1    1    2 1
     2    1   20 1
     3    1   21 1
     4    1   22 1
     5    2    3 1
     6    2    4 1
     7    2   11 1
     8    4    5 2
     9    4    6 am
    10    6    7 1
    11    6   23 1
    12    7    8 1
    13    7   24 1
    14    7   25 1
    15    8    9 1
    16    8   26 1
    17    8   27 1
    18    9   10 1
    19   10   28 1
    20   10   29 1
    21   10   30 1
    22   11   12 1
    23   11   31 1
    24   12   17 ar
    25   12   13 ar
    26   13   14 ar
    27   13   32 1
    28   14   15 ar
    29   14   33 1
    30   15   16 ar
    31   15   19 1
    32   16   17 ar
    33   16   34 1
    34   17   18 1
@<TRIPOS>MOLECULE
ZINC37241336
   40    40     0     0     0
SMALL
USER_CHARGES

@<TRIPOS>ATOM
      1 C1         -0.0187    1.5258    0.0104 C.3       1 <0>        -0.1595
      2 C2          0.0021   -0.0041    0.0020 C.3       1 <0>        -0.1427
      3 C3         -1.4333   -0.5336    0.0129 C.3       1 <0>         0.1551
      4 H1         -1.9862   -0.1019   -0.8214 H         1 <0>         0.0808
      5 C4         -1.4157   -2.0577   -0.1212 C.3       1 <0>        -0.1030
      6 C5         -2.8510   -2.5872   -0.1103 C.3       1 <0>        -0.1466
      7 C6         -0.7387   -2.4460   -1.4372 C.3       1 <0>        -0.1491
      8 N1         -2.0815   -0.1618    1.2729 N.pl3     1 <0>        -0.7381
      9 C7         -2.6849    1.0910    1.4048 C.ar      1 <0>         0.2347
     10 C8         -2.6758    1.9832    0.3390 C.ar      1 <0>        -0.2042
     11 C9         -3.2718    3.2225    0.4688 C.ar      1 <0>        -0.0543
     12 C10        -3.8793    3.5794    1.6574 C.ar      1 <0>        -0.2103
     13 C11        -3.8920    2.6922    2.7267 C.ar      1 <0>         0.1816
     14 C12        -3.2990    1.4440    2.5978 C.ar      1 <0>        -0.2135
     15 N2         -4.5055    3.0541    3.9282 N.pl3     1 <0>        -1.0575
     16 S1         -5.9929    3.7818    3.9120 S.o2      1 <0>         2.6108
     17 O1         -6.2921    4.0257    5.2796 O.2       1 <0>        -0.9538
     18 O2         -5.8592    4.8601    2.9963 O.2       1 <0>        -0.9457
     19 C13        -7.1182    2.5276    3.2403 C.3       1 <0>        -0.6688
     20 H2          1.0039    1.9031    0.0027 H         1 <0>         0.0498
     21 H3         -0.5459    1.8868   -0.8726 H         1 <0>         0.0571
     22 H4         -0.5289    1.8773    0.9072 H         1 <0>         0.0664
     23 H5          0.5123   -0.3556   -0.8948 H         1 <0>         0.0734
     24 H6          0.5293   -0.3651    0.8851 H         1 <0>         0.0637
     25 H7         -0.8628   -2.4894    0.7131 H         1 <0>         0.0737
     26 H8         -3.4039   -2.1555   -0.9446 H         1 <0>         0.0554
     27 H9         -2.8385   -3.6730   -0.2059 H         1 <0>         0.0558
     28 H10        -3.3333   -2.3105    0.8272 H         1 <0>         0.0559
     29 H11         0.2839   -2.0688   -1.4449 H         1 <0>         0.0615
     30 H12        -0.7261   -3.5318   -1.5327 H         1 <0>         0.0594
     31 H13        -1.2916   -2.0143   -2.2714 H         1 <0>         0.0577
     32 H14        -2.0916   -0.7855    2.0157 H         1 <0>         0.3983
     33 H15        -2.2018    1.7073   -0.5914 H         1 <0>         0.1313
     34 H16        -3.2627    3.9142   -0.3606 H         1 <0>         0.1275
     35 H17        -4.3445    4.5492    1.7555 H         1 <0>         0.1553
     36 H18        -3.3117    0.7507    3.4259 H         1 <0>         0.1238
     37 H19        -4.0602    2.8792    4.7720 H         1 <0>         0.4258
     38 H20        -7.1069    1.6475    3.8833 H         1 <0>         0.1292
     39 H21        -8.1292    2.9326    3.1966 H         1 <0>         0.1325
     40 H22        -6.7948    2.2490    2.2374 H         1 <0>         0.1306
@<TRIPOS>BOND
     1    1    2 1
     2    1   20 1
     3    1   21 1
     4    1   22 1
     5    2    3 1
     6    2   23 1
     7    2   24 1
     8    3    4 1
     9    3    5 1
    10    3    8 1
    11    5    6 1
    12    5    7 1
    13    5   25 1
    14    6   26 1
    15    6   27 1
    16    6   28 1
    17    7   29 1
    18    7   30 1
    19    7   31 1
    20    8    9 1
    21    8   32 1
    22    9   14 ar
    23    9   10 ar
    24   10   11 ar
    25   10   33 1
    26   11   12 ar
    27   11   34 1
    28   12   13 ar
    29   12   35 1
    30   13   14 ar
    31   13   15 1
    32   14   36 1
    33   15   16 1
    34   15   37 1
    35   16   17 2
    36   16   18 2
    37   16   19 1
    38   19   38 1
    39   19   39 1
    40   19   40 1
@<TRIPOS>MOLECULE
ZINC41821298
   42    42     0     0     0
SMALL
USER_CHARGES

@<TRIPOS>ATOM
      1 C1         -0.0187    1.5258    0.0104 C.3       1 <0>        -0.1511
      2 C2          0.0021   -0.0041    0.0020 C.3       1 <0>        -0.1368
      3 C3          0.7182   -0.4975   -1.2568 C.3       1 <0>         0.1165
      4 N1          0.7381   -1.9623   -1.2648 N.am      1 <0>        -0.7264
      5 C4          1.3211   -2.6228   -2.2848 C.2       1 <0>         0.5089
      6 O1          1.8293   -2.0044   -3.1960 O.2       1 <0>        -0.5356
      7 C5          1.3415   -4.1296   -2.2931 C.3       1 <0>         0.1003
      8 N2          2.0272   -4.6021   -3.4984 N.am      1 <0>        -0.7163
      9 C6          2.1663   -5.9242   -3.7202 C.2       1 <0>         0.5530
     10 O2          1.7222   -6.7255   -2.9191 O.2       1 <0>        -0.5462
     11 C7          2.8517   -6.3964   -4.9249 C.2       1 <0>        -0.2196
     12 C8          2.9908   -7.7188   -5.1467 C.2       1 <0>        -0.0098
     13 C9          3.6798   -8.1936   -6.3578 C.ar      1 <0>        -0.0903
     14 C10         4.1965   -7.2757   -7.2779 C.ar      1 <0>        -0.0899
     15 C11         4.8405   -7.7281   -8.4099 C.ar      1 <0>        -0.1305
     16 C12         4.9763   -9.0869   -8.6369 C.ar      1 <0>        -0.0664
     17 C13         4.4677  -10.0012   -7.7313 C.ar      1 <0>        -0.1265
     18 C14         3.8260   -9.5643   -6.5914 C.ar      1 <0>        -0.0522
     19 C15         3.2789  -10.5617   -5.6030 C.3       1 <0>        -0.1247
     20 C16         5.6811   -9.5729   -9.8771 C.3       1 <0>        -0.1195
     21 H1          1.0039    1.9031    0.0027 H         1 <0>         0.0586
     22 H2         -0.5459    1.8868   -0.8726 H         1 <0>         0.0586
     23 H3         -0.5289    1.8773    0.9072 H         1 <0>         0.0619
     24 H4          0.5293   -0.3651    0.8851 H         1 <0>         0.0702
     25 H5         -1.0205   -0.3814    0.0098 H         1 <0>         0.0702
     26 H6          0.1910   -0.1364   -2.1398 H         1 <0>         0.0704
     27 H7          1.7408   -0.1202   -1.2645 H         1 <0>         0.0704
     28 H8          0.3316   -2.4569   -0.5361 H         1 <0>         0.4051
     29 H9          1.8687   -4.4907   -1.4101 H         1 <0>         0.1012
     30 H10         0.3189   -4.5069   -2.2854 H         1 <0>         0.1013
     31 H11         2.3812   -3.9633   -4.1369 H         1 <0>         0.4135
     32 H12         3.2457   -5.6852   -5.6358 H         1 <0>         0.1310
     33 H13         2.5967   -8.4300   -4.4358 H         1 <0>         0.1387
     34 H14         4.0910   -6.2153   -7.1023 H         1 <0>         0.1284
     35 H15         5.2397   -7.0206   -9.1215 H         1 <0>         0.1258
     36 H16         4.5772  -11.0598   -7.9155 H         1 <0>         0.1262
     37 H17         2.2520  -10.8116   -5.8696 H         1 <0>         0.0765
     38 H18         3.8893  -11.4645   -5.6222 H         1 <0>         0.0711
     39 H19         3.2997  -10.1303   -4.6022 H         1 <0>         0.0729
     40 H20         6.7453   -9.6853   -9.6696 H         1 <0>         0.0739
     41 H21         5.2659  -10.5348  -10.1776 H         1 <0>         0.0686
     42 H22         5.5420   -8.8500  -10.6809 H         1 <0>         0.0688
@<TRIPOS>BOND
     1    1    2 1
     2    1   21 1
     3    1   22 1
     4    1   23 1
     5    2    3 1
     6    2   24 1
     7    2   25 1
     8    3    4 1
     9    3   26 1
    10    3   27 1
    11    4    5 am
    12    4   28 1
    13    5    6 2
    14    5    7 1
    15    7    8 1
    16    7   29 1
    17    7   30 1
    18    8    9 am
    19    8   31 1
    20    9   10 2
    21    9   11 1
    22   11   12 2
    23   11   32 1
    24   12   13 1
    25   12   33 1
    26   13   18 ar
    27   13   14 ar
    28   14   15 ar
    29   14   34 1
    30   15   16 ar
    31   15   35 1
    32   16   17 ar
    33   16   20 1
    34   17   18 ar
    35   17   36 1
    36   18   19 1
    37   19   37 1
    38   19   38 1
    39   19   39 1
    40   20   40 1
    41   20   41 1
    42   20   42 1
@<TRIPOS>MOLECULE
ZINC54084721
   41    43     0     0     0
SMALL
USER_CHARGES

@<TRIPOS>ATOM
      1 C1         -0.0187    1.5258    0.0104 C.3       1 <0>        -0.1605
      2 C2          0.0021   -0.0041    0.0020 C.3       1 <0>        -0.1385
      3 C3          0.7182   -0.4975   -1.2568 C.3       1 <0>         0.2362
      4 H1          1.7103   -0.0491   -1.3098 H         1 <0>         0.1095
      5 C4          0.8473   -1.9981   -1.2057 C.2       1 <0>        -0.0283
      6 C5          1.9475   -2.6811   -0.8418 C.2       1 <0>        -0.1920
      7 C6          1.6275   -4.0548   -0.9384 C.2       1 <0>        -0.2123
      8 C7          0.3508   -4.1291   -1.3555 C.2       1 <0>        -0.0336
      9 O1         -0.1185   -2.8803   -1.5102 O.3       1 <0>        -0.1741
     10 N1         -0.0549   -0.1139   -2.4405 N.pl3     1 <0>        -0.7314
     11 C8          0.1122    1.1475   -3.0013 C.ar      1 <0>         0.2472
     12 C9          1.0187    2.0427   -2.4401 C.ar      1 <0>        -0.2101
     13 C10         1.1864    3.2917   -2.9927 C.ar      1 <0>        -0.0084
     14 C11         0.4452    3.6613   -4.1189 C.ar      1 <0>        -0.1997
     15 C12        -0.4643    2.7602   -4.6801 C.ar      1 <0>        -0.0345
     16 C13        -0.6233    1.5106   -4.1262 C.ar      1 <0>        -0.2037
     17 C14         0.6221    4.9997   -4.7135 C.2       1 <0>         0.5692
     18 O2          1.4133    5.7827   -4.2241 O.2       1 <0>        -0.5417
     19 N2         -0.0932    5.3547   -5.7993 N.am      1 <0>        -0.7032
     20 C15         0.0825    6.6838   -6.3898 C.3       1 <0>         0.0798
     21 C16        -1.1783    7.4446   -6.8051 C.3       1 <0>        -0.1935
     22 C17        -0.2579    6.8488   -7.8723 C.3       1 <0>        -0.1896
     23 H2          1.0039    1.9031    0.0027 H         1 <0>         0.0615
     24 H3         -0.5459    1.8868   -0.8726 H         1 <0>         0.0676
     25 H4         -0.5289    1.8773    0.9072 H         1 <0>         0.0579
     26 H5          0.5293   -0.3651    0.8851 H         1 <0>         0.0774
     27 H6         -1.0205   -0.3814    0.0098 H         1 <0>         0.0714
     28 H7          2.8940   -2.2607   -0.5353 H         1 <0>         0.1511
     29 H8          2.2825   -4.8852   -0.7196 H         1 <0>         0.1516
     30 H9         -0.2040   -5.0387   -1.5322 H         1 <0>         0.2054
     31 H10        -0.6834   -0.7398   -2.8331 H         1 <0>         0.4069
     32 H11         1.5908    1.7566   -1.5698 H         1 <0>         0.1363
     33 H12         1.8895    3.9858   -2.5566 H         1 <0>         0.1358
     34 H13        -1.0387    3.0430   -5.5499 H         1 <0>         0.1229
     35 H14        -1.3223    0.8122   -4.5622 H         1 <0>         0.1268
     36 H15        -0.7243    4.7301   -6.1897 H         1 <0>         0.3998
     37 H16         0.9158    7.2664   -5.9969 H         1 <0>         0.1390
     38 H17        -2.1385    6.9562   -6.6389 H         1 <0>         0.0968
     39 H18        -1.1747    8.5280   -6.6853 H         1 <0>         0.1034
     40 H19         0.3511    7.5402   -8.4546 H         1 <0>         0.1046
     41 H20        -0.6126    5.9685   -8.4082 H         1 <0>         0.0971
@<TRIPOS>BOND
     1    1    2 1
     2    1   23 1
     3    1   24 1
     4    1   25 1
     5    2    3 1
     6    2   26 1
     7    2   27 1
     8    3    4 1
     9    3    5 1
    10    3   10 1
    11    5    9 1
    12    5    6 2
    13    6    7 1
    14    6   28 1
    15    7    8 2
    16    7   29 1
    17    8    9 1
    18    8   30 1
    19   10   11 1
    20   10   31 1
    21   11   16 ar
    22   11   12 ar
    23   12   13 ar
    24   12   32 1
    25   13   14 ar
    26   13   33 1
    27   14   15 ar
    28   14   17 1
    29   15   16 ar
    30   15   34 1
    31   16   35 1
    32   17   18 2
    33   17   19 am
    34   19   20 1
    35   19   36 1
    36   20   22 1
    37   20   21 1
    38   20   37 1
    39   21   22 1
    40   21   38 1
    41   21   39 1
    42   22   40 1
    43   22   41 1
@<TRIPOS>MOLECULE
ZINC62787308
   40    40     0     0     0
SMALL
USER_CHARGES

@<TRIPOS>ATOM
      1 C1          0.0592    1.6924   -0.6060 C.3       1 <0>        -0.1664
      2 C2         -0.0967    0.2386   -0.1551 C.3       1 <0>        -0.0920
      3 C3          0.7087    0.0128    1.1259 C.3       1 <0>        -0.1771
      4 C4         -1.5739   -0.0567    0.1124 C.3       1 <0>         0.1331
      5 N1         -2.0678    0.8362    1.1636 N.pl3     1 <0>        -0.7266
      6 C5         -3.3887    0.7541    1.5794 C.ar      1 <0>         0.2539
      7 C6         -4.2764   -0.0886    0.9226 C.ar      1 <0>        -0.2180
      8 C7         -5.5907   -0.1684    1.3384 C.ar      1 <0>         0.0133
      9 C8         -6.0357    0.5900    2.4129 C.ar      1 <0>        -0.1835
     10 C9         -5.1716    1.4305    3.0762 C.ar      1 <0>        -0.0254
     11 C10        -3.8347    1.5188    2.6712 C.ar      1 <0>        -0.2072
     12 C11        -2.9047    2.4096    3.3793 C.2       1 <0>         0.5340
     13 O1         -3.2662    2.9895    4.3944 O.co2     1 <0>        -0.6700
     14 O2         -1.7688    2.5713    2.9539 O.co2     1 <0>        -0.6955
     15 Cl1        -6.6941   -1.2236    0.5120 Cl        1 <0>        -0.0900
     16 C12         0.4191   -0.6939   -1.2530 C.3       1 <0>        -0.0006
     17 N2          1.8429   -0.4249   -1.4949 N.4       1 <0>        -0.3859
     18 C13         2.6557   -1.2059   -0.5529 C.3       1 <0>        -0.0744
     19 C14         2.1864   -0.8066   -2.8712 C.3       1 <0>        -0.0465
     20 H1          1.1183    1.9308   -0.7040 H         1 <0>         0.0512
     21 H2         -0.4346    1.8294   -1.5680 H         1 <0>         0.0715
     22 H3         -0.3949    2.3526    0.1329 H         1 <0>         0.1004
     23 H4          0.2406    0.5523    1.9493 H         1 <0>         0.1017
     24 H5          0.7332   -1.0523    1.3567 H         1 <0>         0.0719
     25 H6          1.7262    0.3773    0.9845 H         1 <0>         0.0610
     26 H7         -2.1477    0.1042   -0.8002 H         1 <0>         0.0607
     27 H8         -1.6850   -1.0924    0.4336 H         1 <0>         0.0605
     28 H9         -1.4712    1.4848    1.5689 H         1 <0>         0.4255
     29 H10        -3.9384   -0.6817    0.0857 H         1 <0>         0.1196
     30 H11        -7.0659    0.5200    2.7295 H         1 <0>         0.1246
     31 H12        -5.5235    2.0180    3.9113 H         1 <0>         0.1366
     32 H13         0.2934   -1.7299   -0.9384 H         1 <0>         0.1331
     33 H14        -0.1441   -0.5218   -2.1702 H         1 <0>         0.1330
     34 H15         2.5355   -2.2686   -0.7635 H         1 <0>         0.1211
     35 H16         3.7045   -0.9301   -0.6626 H         1 <0>         0.1207
     36 H17         2.3302   -0.9985    0.4665 H         1 <0>         0.1424
     37 H18         1.6484   -0.1667   -3.5707 H         1 <0>         0.1220
     38 H19         3.2593   -0.6900   -3.0236 H         1 <0>         0.1215
     39 H20         1.9062   -1.8463   -3.0406 H         1 <0>         0.1211
     40 H21         2.0266    0.5584   -1.3627 H         1 <0>         0.4244
@<TRIPOS>BOND
     1    1    2 1
     2    1   20 1
     3    1   21 1
     4    1   22 1
     5    2    3 1
     6    2    4 1
     7    2   16 1
     8    3   23 1
     9    3   24 1
    10    3   25 1
    11    4    5 1
    12    4   26 1
    13    4   27 1
    14    5    6 1
    15    5   28 1
    16    6   11 ar
    17    6    7 ar
    18    7    8 ar
    19    7   29 1
    20    8    9 ar
    21    8   15 1
    22    9   10 ar
    23    9   30 1
    24   10   11 ar
    25   10   31 1
    26   11   12 1
    27   12   13 2
    28   12   14 1
    29   16   17 1
    30   16   32 1
    31   16   33 1
    32   17   18 1
    33   17   19 1
    34   17   40 1
    35   18   34 1
    36   18   35 1
    37   18   36 1
    38   19   37 1
    39   19   38 1
    40   19   39 1
@<TRIPOS>MOLECULE
ZINC19724726
   44    46     0     0     0
SMALL
USER_CHARGES
[2-(3,4-dimethoxyphenyl)-5-methoxy-1H-indol-3-yl]methanamine
@<TRIPOS>ATOM
      1 C1         -8.5487   -2.7966   -1.9087 C.3       1 <0>         0.0206
      2 O1         -7.1793   -2.5875   -2.2595 O.3       1 <0>        -0.3155
      3 C2         -6.4597   -1.7498   -1.4659 C.ar      1 <0>         0.1276
      4 C3         -7.0662   -1.1415   -0.3696 C.ar      1 <0>        -0.1741
      5 C4         -6.3527   -0.2900    0.4444 C.ar      1 <0>        -0.0731
      6 C5         -5.0131   -0.0300    0.1757 C.ar      1 <0>         0.0575
      7 C6         -4.3967   -0.6429   -0.9311 C.ar      1 <0>        -0.0484
      8 C7         -5.1315   -1.5056   -1.7504 C.ar      1 <0>        -0.1386
      9 C8         -3.0132   -0.1705   -0.9443 C.2       1 <0>        -0.2653
     10 C9         -2.8690    0.6623    0.1166 C.2       1 <0>         0.2206
     11 N1         -4.0626    0.7567    0.7936 N.pl3     1 <0>        -0.5831
     12 H1         -4.3264    1.3349    1.6914 H         1 <0>         0.4555
     13 C10        -1.6217    1.3657    0.4851 C.ar      1 <0>        -0.0791
     14 C11        -1.1676    1.3393    1.8045 C.ar      1 <0>        -0.0869
     15 C12        -0.0008    1.9912    2.1457 C.ar      1 <0>        -0.1722
     16 C13         0.7210    2.6780    1.1808 C.ar      1 <0>         0.1297
     17 C14         0.2705    2.7128   -0.1367 C.ar      1 <0>         0.1068
     18 C15        -0.8986    2.0616   -0.4849 C.ar      1 <0>        -0.1570
     19 O2          0.9802    3.3874   -1.0805 O.3       1 <0>        -0.2974
     20 C16         0.4595    3.3812   -2.4113 C.3       1 <0>         0.0198
     21 O3          1.8709    3.3183    1.5216 O.3       1 <0>        -0.2978
     22 C17         2.2751    3.2416    2.8901 C.3       1 <0>         0.0173
     23 C18        -1.9489   -0.5405   -1.9450 C.3       1 <0>         0.0882
     24 N2         -1.2068   -1.7119   -1.4601 N.4       1 <0>        -0.6857
     25 H2         -9.0096   -3.4899   -2.6276 H         1 <0>         0.1080
     26 H3         -9.0838   -1.8358   -1.9312 H         1 <0>         0.0603
     27 H4         -8.6068   -3.2251   -0.8972 H         1 <0>         0.0598
     28 H5         -8.1062   -1.3394   -0.1558 H         1 <0>         0.1399
     29 H6         -6.8336    0.1760    1.2917 H         1 <0>         0.1322
     30 H7         -4.6623   -1.9782   -2.6006 H         1 <0>         0.1301
     31 H8         -1.7274    0.8046    2.5576 H         1 <0>         0.1324
     32 H9          0.3516    1.9665    3.1662 H         1 <0>         0.1467
     33 H10        -1.2493    2.0881   -1.5061 H         1 <0>         0.1429
     34 H11         1.1258    3.9593   -3.0684 H         1 <0>         0.1117
     35 H12        -0.5427    3.8345   -2.4150 H         1 <0>         0.0605
     36 H13         0.3946    2.3450   -2.7748 H         1 <0>         0.0526
     37 H14         3.2138    3.7985    3.0269 H         1 <0>         0.1119
     38 H15         2.4295    2.1886    3.1683 H         1 <0>         0.0613
     39 H16         1.4931    3.6787    3.5284 H         1 <0>         0.0622
     40 H17        -2.4200   -0.7786   -2.9101 H         1 <0>         0.1339
     41 H18        -1.2567    0.3047   -2.0735 H         1 <0>         0.1249
     42 H19        -0.4300   -1.9819   -2.1906 H         1 <0>         0.4533
     43 H20        -1.8990   -2.5571   -1.3317 H         1 <0>         0.4551
     44 H21        -0.7358   -1.4738   -0.4950 H         1 <0>         0.4508
@<TRIPOS>BOND
     1    1    2 1
     2    1   25 1
     3    1   26 1
     4    1   27 1
     5    2    3 1
     6    3    8 ar
     7    3    4 ar
     8    4    5 ar
     9    4   28 1
    10    5    6 ar
    11    5   29 1
    12    6   11 1
    13    6    7 ar
    14    7    8 ar
    15    7    9 1
    16    8   30 1
    17    9   10 2
    18    9   23 1
    19   10   11 1
    20   10   13 1
    21   11   12 1
    22   13   18 ar
    23   13   14 ar
    24   14   15 ar
    25   14   31 1
    26   15   16 ar
    27   15   32 1
    28   16   17 ar
    29   16   21 1
    30   17   18 ar
    31   17   19 1
    32   18   33 1
    33   19   20 1
    34   20   34 1
    35   20   35 1
    36   20   36 1
    37   21   22 1
    38   22   37 1
    39   22   38 1
    40   22   39 1
    41   23   24 1
    42   23   40 1
    43   23   41 1
    44   24   42 1
    45   24   43 1
    46   24   44 1
@<TRIPOS>MOLECULE
ZINC37018656
   37    38     0     0     0
SMALL
USER_CHARGES

@<TRIPOS>ATOM
      1 C1          0.0652    1.2477   -0.5862 C.ar      1 <0>        -0.0841
      2 C2          1.2519    1.9537   -0.5856 C.ar      1 <0>        -0.1224
      3 C3          2.3814    1.4119    0.0105 C.ar      1 <0>         0.1356
      4 C4          2.3194    0.1606    0.6063 C.ar      1 <0>        -0.1910
      5 C5          1.1334   -0.5466    0.6060 C.ar      1 <0>        -0.0689
      6 C6          0.0025   -0.0047    0.0100 C.ar      1 <0>         0.0795
      7 N1         -1.2015   -0.7214    0.0101 N.am      1 <0>        -0.6355
      8 C7         -1.1861   -2.0646   -0.0990 C.2       1 <0>         0.5063
      9 O1         -0.1294   -2.6599   -0.1128 O.2       1 <0>        -0.5073
     10 C8         -2.4819   -2.8270   -0.2037 C.3       1 <0>         0.0091
     11 H1         -3.2242   -2.4073    0.4752 H         1 <0>         0.1727
     12 C9         -3.0073   -2.7998   -1.6607 C.3       1 <0>        -0.1293
     13 C10        -3.8953   -4.0714   -1.6974 C.3       1 <0>         0.0965
     14 H2         -4.8830   -3.8637   -1.2857 H         1 <0>         0.1061
     15 C11        -3.1252   -5.0593   -0.7960 C.3       1 <0>        -0.0460
     16 N2         -2.2625   -4.2583    0.0945 N.4       1 <0>        -0.4976
     17 O2         -4.0012   -4.5755   -3.0303 O.3       1 <0>        -0.5367
     18 O3          3.5497    2.1074    0.0104 O.3       1 <0>        -0.2950
     19 C12         4.6727    1.4893    0.6420 C.3       1 <0>         0.0121
     20 C13         5.8870    2.4147    0.5424 C.3       1 <0>         0.4661
     21 F1          5.6027    3.6274    1.1794 F         1 <0>        -0.1706
     22 F2          6.9864    1.8096    1.1608 F         1 <0>        -0.1677
     23 F3          6.1823    2.6533   -0.8041 F         1 <0>        -0.1708
     24 H3         -0.8151    1.6715   -1.0464 H         1 <0>         0.1418
     25 H4          1.3010    2.9277   -1.0496 H         1 <0>         0.1475
     26 H5          3.1990   -0.2606    1.0702 H         1 <0>         0.1386
     27 H6          1.0855   -1.5210    1.0693 H         1 <0>         0.1426
     28 H7         -2.0460   -0.2508    0.0887 H         1 <0>         0.4211
     29 H8         -3.6002   -1.9040   -1.8454 H         1 <0>         0.1346
     30 H9         -2.1861   -2.8764   -2.3734 H         1 <0>         0.1164
     31 H10        -3.8275   -5.6439   -0.2018 H         1 <0>         0.1451
     32 H11        -2.5139   -5.7215   -1.4091 H         1 <0>         0.1453
     33 H12        -1.2951   -4.4946   -0.0679 H         1 <0>         0.4399
     34 H13        -4.5461   -5.3705   -3.1080 H         1 <0>         0.4022
     35 H14         4.4426    1.3034    1.6911 H         1 <0>         0.1131
     36 H15         4.8942    0.5445    0.1457 H         1 <0>         0.1128
     37 H16        -2.4993   -4.4447    1.0575 H         1 <0>         0.4376
@<TRIPOS>BOND
     1    1    6 ar
     2    1    2 ar
     3    1   24 1
     4    2    3 ar
     5    2   25 1
     6    3    4 ar
     7    3   18 1
     8    4    5 ar
     9    4   26 1
    10    5    6 ar
    11    5   27 1
    12    6    7 1
    13    7    8 am
    14    7   28 1
    15    8    9 2
    16    8   10 1
    17   10   11 1
    18   10   16 1
    19   10   12 1
    20   12   13 1
    21   12   29 1
    22   12   30 1
    23   13   14 1
    24   13   15 1
    25   13   17 1
    26   15   16 1
    27   15   31 1
    28   15   32 1
    29   16   33 1
    30   16   37 1
    31   17   34 1
    32   18   19 1
    33   19   20 1
    34   19   35 1
    35   19   36 1
    36   20   21 1
    37   20   22 1
    38   20   23 1
@<TRIPOS>MOLECULE
ZINC42166348
   44    44     0     0     0
SMALL
USER_CHARGES

@<TRIPOS>ATOM
      1 C1         -0.0187    1.5258    0.0104 C.3       1 <0>        -0.1532
      2 C2          0.0021   -0.0041    0.0020 C.3       1 <0>        -0.0918
      3 C3          0.7421   -0.5109    1.2415 C.3       1 <0>        -0.1556
      4 C4         -1.4333   -0.5336    0.0129 C.3       1 <0>        -0.1252
      5 C5         -1.4157   -2.0577   -0.1212 C.3       1 <0>         0.1252
      6 H1         -0.7891   -2.4841    0.6622 H         1 <0>         0.1232
      7 C6         -2.8192   -2.5900    0.0125 C.2       1 <0>         0.5001
      8 O1         -3.3197   -3.2157   -0.8979 O.2       1 <0>        -0.5311
      9 N1         -3.5181   -2.3707    1.1439 N.am      1 <0>        -0.7285
     10 C7         -4.8824   -2.8882    1.2739 C.3       1 <0>         0.0841
     11 N2         -0.8765   -2.4263   -1.4325 N.am      1 <0>        -0.6903
     12 C8         -0.2982   -3.6308   -1.6090 C.2       1 <0>         0.5138
     13 O2         -0.2242   -4.4096   -0.6822 O.2       1 <0>        -0.5516
     14 C9          0.2565   -4.0101   -2.9579 C.3       1 <0>        -0.1649
     15 C10         0.8523   -5.4175   -2.8870 C.3       1 <0>         0.0465
     16 H2          0.1064   -6.1269   -2.5287 H         1 <0>         0.1503
     17 C11         1.3831   -5.8490   -4.2769 C.3       1 <0>        -0.1389
     18 C12         2.4450   -6.9121   -3.8905 C.3       1 <0>        -0.1427
     19 C13         3.0401   -6.3496   -2.5825 C.3       1 <0>        -0.0100
     20 N3          2.0396   -5.4300   -2.0061 N.4       1 <0>        -0.5112
     21 H3          1.0039    1.9031    0.0027 H         1 <0>         0.0608
     22 H4         -0.5459    1.8868   -0.8726 H         1 <0>         0.0582
     23 H5         -0.5289    1.8773    0.9072 H         1 <0>         0.0604
     24 H6          0.5123   -0.3556   -0.8948 H         1 <0>         0.0698
     25 H7          0.7568   -1.6008    1.2356 H         1 <0>         0.0516
     26 H8          1.7647   -0.1336    1.2338 H         1 <0>         0.0607
     27 H9          0.2319   -0.1594    2.1383 H         1 <0>         0.0622
     28 H10        -1.9156   -0.2570    0.9504 H         1 <0>         0.0912
     29 H11        -1.9862   -0.1019   -0.8214 H         1 <0>         0.0816
     30 H12        -3.1177   -1.8703    1.8720 H         1 <0>         0.4039
     31 H13        -5.2836   -2.6140    2.2496 H         1 <0>         0.0819
     32 H14        -5.5090   -2.4618    0.4905 H         1 <0>         0.0638
     33 H15        -4.8699   -3.9740    1.1784 H         1 <0>         0.0621
     34 H16        -0.9356   -1.8035   -2.1738 H         1 <0>         0.4125
     35 H17        -0.5435   -3.9910   -3.6981 H         1 <0>         0.1449
     36 H18         1.0331   -3.3007   -3.2439 H         1 <0>         0.1205
     37 H19         0.5888   -6.2912   -4.8782 H         1 <0>         0.1202
     38 H20         1.8431   -5.0089   -4.7972 H         1 <0>         0.1016
     39 H21         1.9753   -7.8799   -3.7153 H         1 <0>         0.1013
     40 H22         3.2119   -6.9886   -4.6612 H         1 <0>         0.1148
     41 H23         3.2384   -7.1635   -1.8852 H         1 <0>         0.1336
     42 H24         3.9621   -5.8092   -2.7969 H         1 <0>         0.1329
     43 H25         2.4279   -4.5006   -1.9464 H         1 <0>         0.4227
     44 H26         1.7757   -5.7464   -1.0851 H         1 <0>         0.4386
@<TRIPOS>BOND
     1    1    2 1
     2    1   21 1
     3    1   22 1
     4    1   23 1
     5    2    3 1
     6    2    4 1
     7    2   24 1
     8    3   25 1
     9    3   26 1
    10    3   27 1
    11    4    5 1
    12    4   28 1
    13    4   29 1
    14    5    6 1
    15    5    7 1
    16    5   11 1
    17    7    8 2
    18    7    9 am
    19    9   10 1
    20    9   30 1
    21   10   31 1
    22   10   32 1
    23   10   33 1
    24   11   12 am
    25   11   34 1
    26   12   13 2
    27   12   14 1
    28   14   15 1
    29   14   35 1
    30   14   36 1
    31   15   16 1
    32   15   20 1
    33   15   17 1
    34   17   18 1
    35   17   37 1
    36   17   38 1
    37   18   19 1
    38   18   39 1
    39   18   40 1
    40   19   20 1
    41   19   41 1
    42   19   42 1
    43   20   43 1
    44   20   44 1
@<TRIPOS>MOLECULE
ZINC50377512
   47    48     0     0     0
SMALL
USER_CHARGES

@<TRIPOS>ATOM
      1 C1          0.8572   -0.8505   -0.9095 C.3       1 <0>        -0.1796
      2 C2         -0.0083    0.0237    0.0002 C.3       1 <0>         0.0844
      3 H1          0.3948    0.0049    1.0128 H         1 <0>         0.1439
      4 C3         -1.4192   -0.5055    0.0114 C.ar      1 <0>        -0.1741
      5 C4         -2.2742   -0.2128   -1.0353 C.ar      1 <0>        -0.0972
      6 C5         -3.5679   -0.6963   -1.0281 C.ar      1 <0>        -0.1124
      7 C6         -4.0098   -1.4771    0.0318 C.ar      1 <0>         0.2071
      8 C7         -3.1488   -1.7693    1.0814 C.ar      1 <0>        -0.1426
      9 C8         -1.8545   -1.2875    1.0655 C.ar      1 <0>        -0.0616
     10 N1         -5.3202   -1.9682    0.0424 N.am      1 <0>        -0.6898
     11 C9         -5.9265   -2.2959   -1.1159 C.2       1 <0>         0.7043
     12 O1         -5.3044   -2.2570   -2.1598 O.2       1 <0>        -0.5737
     13 N2         -7.2222   -2.6665   -1.1170 N.am      1 <0>        -0.7155
     14 C10        -7.8812   -3.0227   -2.3760 C.3       1 <0>         0.1618
     15 H2         -7.1721   -3.5138   -3.0423 H         1 <0>         0.0999
     16 C11        -8.4511   -1.7577   -3.0504 C.3       1 <0>        -0.1341
     17 C12        -9.7854   -2.2307   -3.6788 C.3       1 <0>        -0.1237
     18 C13       -10.3322   -3.2175   -2.6176 C.3       1 <0>        -0.1473
     19 C14        -9.0765   -3.9519   -2.1009 C.3       1 <0>         0.0760
     20 H3         -8.9478   -4.8936   -2.6344 H         1 <0>         0.0776
     21 O2         -9.1942   -4.1957   -0.6978 O.3       1 <0>        -0.3878
     22 C15        -9.7521   -5.4708   -0.3742 C.3       1 <0>         0.0317
     23 N3         -0.0070    1.4043   -0.5018 N.4       1 <0>        -0.5088
     24 C16         1.3486    1.9609   -0.4006 C.3       1 <0>        -0.0514
     25 H4          1.8777   -0.4678   -0.9176 H         1 <0>         0.0836
     26 H5          0.8562   -1.8749   -0.5371 H         1 <0>         0.1065
     27 H6          0.4540   -0.8318   -1.9221 H         1 <0>         0.0822
     28 H7         -1.9300    0.3949   -1.8592 H         1 <0>         0.1216
     29 H8         -4.2353   -0.4670   -1.8457 H         1 <0>         0.1479
     30 H9         -3.4896   -2.3761    1.9073 H         1 <0>         0.1389
     31 H10        -1.1830   -1.5180    1.8794 H         1 <0>         0.1370
     32 H11        -5.7922   -2.0728    0.8833 H         1 <0>         0.4140
     33 H12        -7.7185   -2.6975   -0.2841 H         1 <0>         0.4100
     34 H13        -8.6332   -0.9794   -2.3094 H         1 <0>         0.0734
     35 H14        -7.7716   -1.3985   -3.8233 H         1 <0>         0.0761
     36 H15       -10.4678   -1.3915   -3.8138 H         1 <0>         0.0769
     37 H16        -9.6072   -2.7411   -4.6253 H         1 <0>         0.0742
     38 H17       -10.8181   -2.6750   -1.8066 H         1 <0>         0.0813
     39 H18       -11.0255   -3.9236   -3.0746 H         1 <0>         0.0743
     40 H19        -9.8080   -5.5787    0.7090 H         1 <0>         0.0892
     41 H20       -10.7529   -5.5480   -0.7991 H         1 <0>         0.0467
     42 H21        -9.1210   -6.2586   -0.7857 H         1 <0>         0.0441
     43 H22        -0.3025    1.4116   -1.4665 H         1 <0>         0.4260
     44 H23         1.6678    1.9529    0.6416 H         1 <0>         0.1246
     45 H24         2.0345    1.3574   -0.9953 H         1 <0>         0.1254
     46 H25         1.3496    2.9853   -0.7731 H         1 <0>         0.1272
     47 H26        -0.6419    1.9629    0.0487 H         1 <0>         0.4317
@<TRIPOS>BOND
     1    1    2 1
     2    1   25 1
     3    1   26 1
     4    1   27 1
     5    2    3 1
     6    2    4 1
     7    2   23 1
     8    4    9 ar
     9    4    5 ar
    10    5    6 ar
    11    5   28 1
    12    6    7 ar
    13    6   29 1
    14    7    8 ar
    15    7   10 1
    16    8    9 ar
    17    8   30 1
    18    9   31 1
    19   10   11 am
    20   10   32 1
    21   11   12 2
    22   11   13 am
    23   13   14 1
    24   13   33 1
    25   14   15 1
    26   14   19 1
    27   14   16 1
    28   16   17 1
    29   16   34 1
    30   16   35 1
    31   17   18 1
    32   17   36 1
    33   17   37 1
    34   18   19 1
    35   18   38 1
    36   18   39 1
    37   19   20 1
    38   19   21 1
    39   21   22 1
    40   22   40 1
    41   22   41 1
    42   22   42 1
    43   23   24 1
    44   23   43 1
    45   23   47 1
    46   24   44 1
    47   24   45 1
    48   24   46 1
@<TRIPOS>MOLECULE
ZINC61676413
   40    41     0     0     0
SMALL
USER_CHARGES

@<TRIPOS>ATOM
      1 C1         -0.4117   -2.4890   -1.1448 C.3       1 <0>        -0.1746
      2 C2         -1.2578   -2.0512    0.0524 C.3       1 <0>        -0.1457
      3 C3         -1.3341   -0.5236    0.0916 C.3       1 <0>         0.0041
      4 H1         -0.3260   -0.1093    0.0897 H         1 <0>         0.1676
      5 C4         -2.0538   -0.0885    1.3421 C.2       1 <0>         0.5133
      6 O1         -3.0747    0.5610    1.2594 O.2       1 <0>        -0.5246
      7 N1         -1.5628   -0.4211    2.5524 N.am      1 <0>        -0.8231
      8 N2         -2.0647   -0.0395   -1.0873 N.4       1 <0>        -0.4929
      9 C5         -1.9990    1.4273   -1.1359 C.3       1 <0>        -0.0194
     10 C6         -2.6479    1.9243   -2.4292 C.3       1 <0>        -0.0910
     11 C7         -2.5805    3.4290   -2.4790 C.ar      1 <0>        -0.1055
     12 C8         -3.6058    4.1839   -1.9401 C.ar      1 <0>        -0.1007
     13 C9         -3.5482    5.5639   -1.9851 C.ar      1 <0>        -0.1098
     14 C10        -2.4610    6.1954   -2.5708 C.ar      1 <0>         0.0670
     15 C11        -1.4292    5.4366   -3.1103 C.ar      1 <0>         0.0545
     16 C12        -1.4913    4.0519   -3.0581 C.ar      1 <0>        -0.1051
     17 O2         -0.3496    6.0359   -3.6827 O.3       1 <0>        -0.3062
     18 C13        -0.4946    7.4137   -4.0439 C.3       1 <0>         0.0192
     19 C14        -1.1448    8.1534   -2.8669 C.3       1 <0>         0.0186
     20 O3         -2.4203    7.5552   -2.6112 O.3       1 <0>        -0.3028
     21 H2         -0.2816   -3.5710   -1.1215 H         1 <0>         0.0908
     22 H3         -0.9143   -2.2033   -2.0688 H         1 <0>         0.0583
     23 H4          0.5636   -2.0047   -1.0969 H         1 <0>         0.0759
     24 H5         -2.2626   -2.4629   -0.0428 H         1 <0>         0.0981
     25 H6         -0.8014   -2.4159    0.9727 H         1 <0>         0.1163
     26 H7         -0.7463   -0.9405    2.6186 H         1 <0>         0.4130
     27 H8         -2.0260   -0.1410    3.3574 H         1 <0>         0.4249
     28 H9         -1.6475   -0.4226   -1.9223 H         1 <0>         0.4313
     29 H10        -2.5300    1.8433   -0.2797 H         1 <0>         0.1501
     30 H11        -0.9568    1.7454   -1.1067 H         1 <0>         0.1308
     31 H12        -2.1169    1.5083   -3.2854 H         1 <0>         0.0955
     32 H13        -3.6900    1.6062   -2.4584 H         1 <0>         0.0996
     33 H14        -4.4533    3.6943   -1.4836 H         1 <0>         0.1361
     34 H15        -4.3507    6.1513   -1.5640 H         1 <0>         0.1420
     35 H16        -0.6896    3.4599   -3.4744 H         1 <0>         0.1361
     36 H17         0.4849    7.8441   -4.2525 H         1 <0>         0.1295
     37 H18        -1.1290    7.4976   -4.9263 H         1 <0>         0.0831
     38 H19        -0.5134    8.0645   -1.9829 H         1 <0>         0.0821
     39 H20        -1.2763    9.2051   -3.1212 H         1 <0>         0.1300
     40 H21        -3.0288   -0.3312   -1.0288 H         1 <0>         0.4337
@<TRIPOS>BOND
     1    1    2 1
     2    1   21 1
     3    1   22 1
     4    1   23 1
     5    2    3 1
     6    2   24 1
     7    2   25 1
     8    3    4 1
     9    3    5 1
    10    3    8 1
    11    5    6 2
    12    5    7 am
    13    7   26 1
    14    7   27 1
    15    8    9 1
    16    8   28 1
    17    8   40 1
    18    9   10 1
    19    9   29 1
    20    9   30 1
    21   10   11 1
    22   10   31 1
    23   10   32 1
    24   11   16 ar
    25   11   12 ar
    26   12   13 ar
    27   12   33 1
    28   13   14 ar
    29   13   34 1
    30   14   20 1
    31   14   15 ar
    32   15   16 ar
    33   15   17 1
    34   16   35 1
    35   17   18 1
    36   18   19 1
    37   18   36 1
    38   18   37 1
    39   19   20 1
    40   19   38 1
    41   19   39 1
@<TRIPOS>MOLECULE
ZINC06395983
   30    30     0     0     0
SMALL
USER_CHARGES
N-[(3-chlorobenzoyl)aminothiocarbamoyl]propanamide
@<TRIPOS>ATOM
      1 C1          5.9395    2.3926   -0.0418 C.3       1 <0>        -0.1423
      2 C2          4.7902    1.3826   -0.0363 C.3       1 <0>        -0.1384
      3 C3          3.4750    2.1183   -0.0197 C.2       1 <0>         0.4834
      4 O1          3.4586    3.3306   -0.0131 O.2       1 <0>        -0.4015
      5 N1          2.3171    1.4286   -0.0124 N.am      1 <0>        -0.6491
      6 C4          1.1410    2.0865    0.0024 C.2       1 <0>         0.5143
      7 S1          1.1178    3.7983    0.0118 S.2       1 <0>        -0.4570
      8 N2         -0.0169    1.3968    0.0097 N.pl3     1 <0>        -0.4567
      9 N3          0.0021   -0.0041    0.0020 N.am      1 <0>        -0.5483
     10 C5         -1.1558   -0.6938    0.0094 C.2       1 <0>         0.5708
     11 O2         -2.2166   -0.1004    0.0227 O.2       1 <0>        -0.5064
     12 C6         -1.1358   -2.1721    0.0012 C.ar      1 <0>        -0.1205
     13 C7          0.0808   -2.8564   -0.0199 C.ar      1 <0>        -0.0841
     14 C8          0.0933   -4.2358   -0.0230 C.ar      1 <0>        -0.1078
     15 C9         -1.0966   -4.9418   -0.0154 C.ar      1 <0>        -0.0752
     16 C10        -2.3069   -4.2698    0.0007 C.ar      1 <0>        -0.0408
     17 C11        -2.3329   -2.8891    0.0088 C.ar      1 <0>        -0.0434
     18 Cl1        -3.7946   -5.1644    0.0101 Cl        1 <0>        -0.0485
     19 H1          5.8647    3.0232   -0.9277 H         1 <0>         0.0667
     20 H2          5.8817    3.0136    0.8521 H         1 <0>         0.0667
     21 H3          6.8907    1.8605   -0.0537 H         1 <0>         0.0689
     22 H4          4.8649    0.7520    0.8497 H         1 <0>         0.0993
     23 H5          4.8479    0.7616   -0.9302 H         1 <0>         0.0993
     24 H6          2.3303    0.4587   -0.0177 H         1 <0>         0.4015
     25 H7         -0.8635    1.8703    0.0163 H         1 <0>         0.4583
     26 H8          0.8486   -0.4776   -0.0086 H         1 <0>         0.4185
     27 H9          1.0105   -2.3069   -0.0300 H         1 <0>         0.1291
     28 H10         1.0341   -4.7659   -0.0359 H         1 <0>         0.1459
     29 H11        -1.0812   -6.0217   -0.0225 H         1 <0>         0.1449
     30 H12        -3.2774   -2.3655    0.0214 H         1 <0>         0.1524
@<TRIPOS>BOND
     1    1    2 1
     2    1   19 1
     3    1   20 1
     4    1   21 1
     5    2    3 1
     6    2   22 1
     7    2   23 1
     8    3    4 2
     9    3    5 am
    10    5    6 1
    11    5   24 1
    12    6    7 2
    13    6    8 1
    14    8    9 1
    15    8   25 1
    16    9   10 am
    17    9   26 1
    18   10   11 2
    19   10   12 1
    20   12   17 ar
    21   12   13 ar
    22   13   14 ar
    23   13   27 1
    24   14   15 ar
    25   14   28 1
    26   15   16 ar
    27   15   29 1
    28   16   17 ar
    29   16   18 1
    30   17   30 1
@<TRIPOS>MOLECULE
ZINC32110703
   35    35     0     0     0
SMALL
USER_CHARGES
N-(2-aminooxy-1,1-dimethyl-ethyl)-2-methyl-benzenesulfonamide
@<TRIPOS>ATOM
      1 C1         -0.7590    0.5265    2.9652 C.3       1 <0>        -0.1670
      2 C2         -0.8269    2.0284    3.0685 C.ar      1 <0>         0.0218
      3 C3         -0.6611    2.6453    4.2946 C.ar      1 <0>        -0.1427
      4 C4         -0.7230    4.0228    4.3892 C.ar      1 <0>        -0.0594
      5 C5         -0.9507    4.7839    3.2577 C.ar      1 <0>        -0.1453
      6 C6         -1.1113    4.1675    2.0310 C.ar      1 <0>        -0.0206
      7 C7         -1.0546    2.7892    1.9373 C.ar      1 <0>        -0.6726
      8 S1         -1.2654    2.0031    0.3745 S.o2      1 <0>         2.7015
      9 O1         -1.3922    3.0406   -0.5882 O.2       1 <0>        -0.9578
     10 O2         -2.2599    1.0040    0.5533 O.2       1 <0>        -0.9567
     11 N1          0.1468    1.2092    0.0314 N.pl3     1 <0>        -1.1210
     12 C8          1.3708    1.9709   -0.2289 C.3       1 <0>         0.1918
     13 C9          1.2066    2.7743   -1.5206 C.3       1 <0>        -0.1887
     14 C10         1.6340    2.9269    0.9363 C.3       1 <0>        -0.1805
     15 C11         2.5502    1.0071   -0.3742 C.3       1 <0>         0.0696
     16 O3          3.7441    1.7501   -0.6281 O.3       1 <0>        -0.2469
     17 N2          4.9392    0.9208   -0.7845 N.3       1 <0>        -0.6516
     18 H1         -0.5722    0.0986    3.9612 H         1 <0>         0.0822
     19 H2          0.0574    0.2423    2.2850 H         1 <0>         0.0849
     20 H3         -1.7127    0.1424    2.5741 H         1 <0>         0.1035
     21 H4         -0.4829    2.0508    5.1785 H         1 <0>         0.1313
     22 H5         -0.5932    4.5047    5.3470 H         1 <0>         0.1307
     23 H6         -0.9987    5.8603    3.3315 H         1 <0>         0.1329
     24 H7         -1.2847    4.7622    1.1464 H         1 <0>         0.1436
     25 H8          0.1216    0.1263   -0.1603 H         1 <0>         0.4423
     26 H9          2.1257    3.3462   -1.7160 H         1 <0>         0.0742
     27 H10         0.3587    3.4673   -1.4161 H         1 <0>         0.0952
     28 H11         1.0173    2.0870   -2.3583 H         1 <0>         0.0626
     29 H12         2.5531    3.4989    0.7409 H         1 <0>         0.0833
     30 H13         1.7521    2.3493    1.8650 H         1 <0>         0.0664
     31 H14         0.7861    3.6198    1.0407 H         1 <0>         0.0675
     32 H15         2.6683    0.4295    0.5545 H         1 <0>         0.0564
     33 H16         2.3610    0.3197   -1.2119 H         1 <0>         0.0649
     34 H17         5.8100    1.5650   -0.9760 H         1 <0>         0.3696
     35 H18         5.1067    0.3418    0.1357 H         1 <0>         0.3349
@<TRIPOS>BOND
     1    1    2 1
     2    1   18 1
     3    1   19 1
     4    1   20 1
     5    2    7 ar
     6    2    3 ar
     7    3    4 ar
     8    3   21 1
     9    4    5 ar
    10    4   22 1
    11    5    6 ar
    12    5   23 1
    13    6    7 ar
    14    6   24 1
    15    7    8 1
    16    8    9 2
    17    8   10 2
    18    8   11 1
    19   11   12 1
    20   11   25 1
    21   12   13 1
    22   12   14 1
    23   12   15 1
    24   13   26 1
    25   13   27 1
    26   13   28 1
    27   14   29 1
    28   14   30 1
    29   14   31 1
    30   15   16 1
    31   15   32 1
    32   15   33 1
    33   16   17 1
    34   17   34 1
    35   17   35 1
@<TRIPOS>MOLECULE
ZINC40780048
   42    43     0     0     0
SMALL
USER_CHARGES

@<TRIPOS>ATOM
      1 C1          0.7984   -0.3813   -1.1102 C.3       1 <0>        -0.1531
      2 C2          0.0065   -0.0048    0.1436 C.3       1 <0>        -0.0978
      3 C3         -0.0088    1.5172    0.2992 C.3       1 <0>        -0.1485
      4 C4         -1.4287   -0.5187    0.0138 C.3       1 <0>        -0.1183
      5 C5         -1.4237   -2.0486    0.0032 C.3       1 <0>         0.1485
      6 H1         -0.7698   -2.4043   -0.7931 H         1 <0>         0.1059
      7 C6         -2.8450   -2.5617   -0.2366 C.3       1 <0>         0.0604
      8 O1         -3.7248   -2.0015    0.7403 O.3       1 <0>        -0.5700
      9 N1         -0.9367   -2.5443    1.2929 N.am      1 <0>        -0.7113
     10 C7         -0.3715   -3.7650    1.3758 C.2       1 <0>         0.5245
     11 O2         -0.2660   -4.4531    0.3827 O.2       1 <0>        -0.5108
     12 C8          0.1295   -4.2749    2.7025 C.3       1 <0>         0.0591
     13 H2         -0.6756   -4.2363    3.4363 H         1 <0>         0.0998
     14 C9          1.3018   -3.4053    3.1785 C.3       1 <0>         0.1011
     15 N2          1.7877   -3.9699    4.4492 N.pl3     1 <0>        -0.7531
     16 C10         1.8895   -5.3668    4.5461 C.ar      1 <0>         0.1345
     17 C11         2.5985   -5.9409    5.5892 C.ar      1 <0>        -0.1531
     18 C12         2.6932   -7.3173    5.6823 C.ar      1 <0>        -0.1062
     19 C13         2.0812   -8.1191    4.7367 C.ar      1 <0>        -0.1329
     20 C14         1.3740   -7.5514    3.6934 C.ar      1 <0>        -0.1030
     21 C15         1.2754   -6.1721    3.5907 C.ar      1 <0>         0.0575
     22 O3          0.5816   -5.6233    2.5578 O.3       1 <0>        -0.2858
     23 H3          1.8209   -0.0152   -1.0178 H         1 <0>         0.0553
     24 H4          0.8093   -1.4656   -1.2211 H         1 <0>         0.0561
     25 H5          0.3291    0.0687   -1.9851 H         1 <0>         0.0566
     26 H6          0.4758   -0.4548    1.0184 H         1 <0>         0.0684
     27 H7         -0.3971    1.9717   -0.6122 H         1 <0>         0.0557
     28 H8         -0.6453    1.7900    1.1410 H         1 <0>         0.0551
     29 H9          1.0052    1.8742    0.4797 H         1 <0>         0.0549
     30 H10        -2.0197   -0.1631    0.8579 H         1 <0>         0.0797
     31 H11        -1.8639   -0.1503   -0.9152 H         1 <0>         0.0800
     32 H12        -3.1742   -2.2675   -1.2332 H         1 <0>         0.0571
     33 H13        -2.8574   -3.6486   -0.1560 H         1 <0>         0.0524
     34 H14        -4.6451   -2.2840    0.6488 H         1 <0>         0.3810
     35 H15        -1.0210   -1.9939    2.0872 H         1 <0>         0.4032
     36 H16         2.1003   -3.4227    2.4368 H         1 <0>         0.0768
     37 H17         0.9631   -2.3810    3.3345 H         1 <0>         0.0980
     38 H18         2.0293   -3.3965    5.1933 H         1 <0>         0.4101
     39 H19         3.0764   -5.3145    6.3279 H         1 <0>         0.1252
     40 H20         3.2455   -7.7664    6.4946 H         1 <0>         0.1260
     41 H21         2.1563   -9.1938    4.8134 H         1 <0>         0.1286
     42 H22         0.8983   -8.1826    2.9575 H         1 <0>         0.1323
@<TRIPOS>BOND
     1    1    2 1
     2    1   23 1
     3    1   24 1
     4    1   25 1
     5    2    3 1
     6    2    4 1
     7    2   26 1
     8    3   27 1
     9    3   28 1
    10    3   29 1
    11    4    5 1
    12    4   30 1
    13    4   31 1
    14    5    6 1
    15    5    7 1
    16    5    9 1
    17    7    8 1
    18    7   32 1
    19    7   33 1
    20    8   34 1
    21    9   10 am
    22    9   35 1
    23   10   11 2
    24   10   12 1
    25   12   13 1
    26   12   22 1
    27   12   14 1
    28   14   15 1
    29   14   36 1
    30   14   37 1
    31   15   16 1
    32   15   38 1
    33   16   21 ar
    34   16   17 ar
    35   17   18 ar
    36   17   39 1
    37   18   19 ar
    38   18   40 1
    39   19   20 ar
    40   19   41 1
    41   20   21 ar
    42   20   42 1
    43   21   22 1
@<TRIPOS>MOLECULE
ZINC44994582
   38    39     0     0     0
SMALL
USER_CHARGES

@<TRIPOS>ATOM
      1 C1         -0.0187    1.5258    0.0104 C.3       1 <0>        -0.1592
      2 C2          0.0021   -0.0041    0.0020 C.3       1 <0>         0.1847
      3 H1          0.5123   -0.3556   -0.8948 H         1 <0>         0.0989
      4 C3         -1.4117   -0.5257    0.0127 C.ar      1 <0>        -0.0960
      5 C4         -2.1228   -0.5709    1.1973 C.ar      1 <0>        -0.1153
      6 C5         -3.4197   -1.0494    1.2071 C.ar      1 <0>        -0.1147
      7 C6         -4.0056   -1.4822    0.0323 C.ar      1 <0>        -0.1171
      8 C7         -3.2949   -1.4361   -1.1525 C.ar      1 <0>        -0.1146
      9 C8         -1.9995   -0.9536   -1.1630 C.ar      1 <0>        -0.1070
     10 N1          0.7106   -0.4894    1.1889 N.am      1 <0>        -0.7197
     11 C9          2.0538   -0.5998    1.1737 C.2       1 <0>         0.5128
     12 O1          2.6758   -0.2974    0.1774 O.2       1 <0>        -0.5347
     13 C10         2.7826   -1.0990    2.3946 C.3       1 <0>         0.1201
     14 N2          4.2226   -1.1273    2.1261 N.am      1 <0>        -0.7353
     15 C11         5.0781   -1.5425    3.0813 C.2       1 <0>         0.7124
     16 O2          4.6548   -1.8935    4.1657 O.2       1 <0>        -0.5882
     17 N3          6.4028   -1.5685    2.8343 N.am      1 <0>        -0.7152
     18 C12         7.3327   -2.0197    3.8725 C.3       1 <0>         0.0983
     19 C13         8.6119   -1.2057    4.0774 C.3       1 <0>        -0.1947
     20 C14         8.6799   -2.5843    3.4173 C.3       1 <0>        -0.1901
     21 H2          1.0039    1.9031    0.0027 H         1 <0>         0.0660
     22 H3         -0.5459    1.8868   -0.8726 H         1 <0>         0.0702
     23 H4         -0.5289    1.8773    0.9072 H         1 <0>         0.0606
     24 H5         -1.6650   -0.2328    2.1152 H         1 <0>         0.1210
     25 H6         -3.9750   -1.0854    2.1327 H         1 <0>         0.1251
     26 H7         -5.0186   -1.8567    0.0401 H         1 <0>         0.1242
     27 H8         -3.7525   -1.7745   -2.0703 H         1 <0>         0.1255
     28 H9         -1.4455   -0.9141   -2.0892 H         1 <0>         0.1250
     29 H10         0.2131   -0.7312    1.9857 H         1 <0>         0.4040
     30 H11         2.5826   -0.4337    3.2345 H         1 <0>         0.1006
     31 H12         2.4385   -2.1044    2.6374 H         1 <0>         0.1006
     32 H13         4.5602   -0.8472    1.2610 H         1 <0>         0.4086
     33 H14         6.7404   -1.2884    1.9692 H         1 <0>         0.3995
     34 H15         6.8725   -2.4651    4.7545 H         1 <0>         0.1404
     35 H16         8.7616   -0.3345    3.4397 H         1 <0>         0.0969
     36 H17         8.9934   -1.1154    5.0944 H         1 <0>         0.1038
     37 H18         9.1061   -3.4009    4.0000 H         1 <0>         0.1052
     38 H19         8.8743   -2.6200    2.3453 H         1 <0>         0.0974
@<TRIPOS>BOND
     1    1    2 1
     2    1   21 1
     3    1   22 1
     4    1   23 1
     5    2    3 1
     6    2    4 1
     7    2   10 1
     8    4    9 ar
     9    4    5 ar
    10    5    6 ar
    11    5   24 1
    12    6    7 ar
    13    6   25 1
    14    7    8 ar
    15    7   26 1
    16    8    9 ar
    17    8   27 1
    18    9   28 1
    19   10   11 am
    20   10   29 1
    21   11   12 2
    22   11   13 1
    23   13   14 1
    24   13   30 1
    25   13   31 1
    26   14   15 am
    27   14   32 1
    28   15   16 2
    29   15   17 am
    30   17   18 1
    31   17   33 1
    32   18   20 1
    33   18   19 1
    34   18   34 1
    35   19   20 1
    36   19   35 1
    37   19   36 1
    38   20   37 1
    39   20   38 1
@<TRIPOS>MOLECULE
ZINC55020998
   43    44     0     0     0
SMALL
USER_CHARGES

@<TRIPOS>ATOM
      1 C1         -1.0775    1.8451   -0.8769 C.3       1 <0>        -0.1488
      2 C2         -0.7963    0.3449   -0.7717 C.3       1 <0>        -0.1158
      3 C3         -2.1012   -0.3994   -0.4817 C.3       1 <0>         0.0959
      4 H1         -2.5681    0.0185    0.4101 H         1 <0>         0.0663
      5 C4         -1.8035   -1.8840   -0.2550 C.3       1 <0>         0.0275
      6 N1         -3.0676   -2.6068   -0.0534 N.3       1 <0>        -0.4986
      7 C5         -3.9530   -2.4420   -1.2155 C.3       1 <0>        -0.0002
      8 C6         -4.2292   -0.9519   -1.4325 C.3       1 <0>         0.0669
      9 O1         -2.9881   -0.2600   -1.5950 O.3       1 <0>        -0.3794
     10 C7         -2.8227   -4.0284    0.2244 C.3       1 <0>         0.1403
     11 H2         -2.1294   -4.1210    1.0603 H         1 <0>         0.1022
     12 C8         -4.1439   -4.7136    0.5793 C.3       1 <0>        -0.0544
     13 C9         -4.6763   -4.1415    1.8678 C.2       1 <0>         0.3611
     14 N2         -4.0196   -3.2147    2.4831 N.2       1 <0>        -0.3827
     15 O2         -4.5198   -2.6771    3.6938 O.3       1 <0>        -0.4376
     16 N3         -5.8629   -4.6068    2.3894 N.pl3     1 <0>        -0.8786
     17 C10        -2.2288   -4.6836   -0.9958 C.ar      1 <0>        -0.1229
     18 C11        -0.8957   -5.0491   -1.0043 C.ar      1 <0>        -0.1048
     19 C12        -0.3509   -5.6502   -2.1236 C.ar      1 <0>        -0.1188
     20 C13        -1.1394   -5.8862   -3.2342 C.ar      1 <0>        -0.1160
     21 C14        -2.4727   -5.5215   -3.2254 C.ar      1 <0>        -0.1200
     22 C15        -3.0186   -4.9243   -2.1045 C.ar      1 <0>        -0.1117
     23 H3         -0.1478    2.3754   -1.0835 H         1 <0>         0.0542
     24 H4         -1.7863    2.0262   -1.6849 H         1 <0>         0.0612
     25 H5         -1.4986    2.2026    0.0628 H         1 <0>         0.0525
     26 H6         -0.3752   -0.0126   -1.7114 H         1 <0>         0.0685
     27 H7         -0.0875    0.1638    0.0363 H         1 <0>         0.0761
     28 H8         -1.2876   -2.2888   -1.1257 H         1 <0>         0.0446
     29 H9         -1.1741   -1.9983    0.6275 H         1 <0>         0.0845
     30 H10        -3.4714   -2.8558   -2.1015 H         1 <0>         0.0575
     31 H11        -4.8927   -2.9637   -1.0340 H         1 <0>         0.0814
     32 H12        -4.8386   -0.8212   -2.3268 H         1 <0>         0.0948
     33 H13        -4.7587   -0.5502   -0.5686 H         1 <0>         0.0561
     34 H14        -4.8665   -4.5451   -0.2191 H         1 <0>         0.0929
     35 H15        -3.9773   -5.7842    0.6985 H         1 <0>         0.0982
     36 H16        -3.9600   -1.9896    4.0798 H         1 <0>         0.3973
     37 H17        -6.3560   -5.3028    1.9275 H         1 <0>         0.3935
     38 H18        -6.2056   -4.2386    3.2188 H         1 <0>         0.4057
     39 H19        -0.2797   -4.8647   -0.1366 H         1 <0>         0.1215
     40 H20         0.6908   -5.9351   -2.1305 H         1 <0>         0.1226
     41 H21        -0.7136   -6.3551   -4.1090 H         1 <0>         0.1218
     42 H22        -3.0887   -5.7056   -4.0932 H         1 <0>         0.1223
     43 H23        -4.0612   -4.6428   -2.0963 H         1 <0>         0.1226
@<TRIPOS>BOND
     1    1    2 1
     2    1   23 1
     3    1   24 1
     4    1   25 1
     5    2    3 1
     6    2   26 1
     7    2   27 1
     8    3    4 1
     9    3    9 1
    10    3    5 1
    11    5    6 1
    12    5   28 1
    13    5   29 1
    14    6    7 1
    15    6   10 1
    16    7    8 1
    17    7   30 1
    18    7   31 1
    19    8    9 1
    20    8   32 1
    21    8   33 1
    22   10   11 1
    23   10   12 1
    24   10   17 1
    25   12   13 1
    26   12   34 1
    27   12   35 1
    28   13   14 2
    29   13   16 1
    30   14   15 1
    31   15   36 1
    32   16   37 1
    33   16   38 1
    34   17   22 ar
    35   17   18 ar
    36   18   19 ar
    37   18   39 1
    38   19   20 ar
    39   19   40 1
    40   20   21 ar
    41   20   41 1
    42   21   22 ar
    43   21   42 1
    44   22   43 1
@<TRIPOS>MOLECULE
ZINC37394102
   38    37     0     0     0
SMALL
USER_CHARGES

@<TRIPOS>ATOM
      1 C1          0.9045   -0.3127    1.2243 C.3       1 <0>        -0.1572
      2 C2          0.0703    0.0844    0.0048 C.3       1 <0>        -0.1494
      3 C3          0.7754   -0.3835   -1.2698 C.3       1 <0>         0.0250
      4 C4          0.8125   -1.9127   -1.3001 C.3       1 <0>        -0.1495
      5 C5          1.6253   -2.3793   -2.5095 C.3       1 <0>        -0.1763
      6 N1          0.0444    0.1119   -2.4438 N.4       1 <0>        -0.4986
      7 C6          0.1275    1.5778   -2.4897 C.3       1 <0>        -0.0065
      8 C7         -0.5099    2.0776   -3.7605 C.2       1 <0>         0.4533
      9 O1         -0.9846    1.2931   -4.5473 O.2       1 <0>        -0.4885
     10 O2         -0.5501    3.3943   -4.0184 O.3       1 <0>        -0.3226
     11 C8         -1.1694    3.7971   -5.2417 C.3       1 <0>         0.1185
     12 C9         -2.6266    3.3311   -5.2532 C.3       1 <0>        -0.1893
     13 C10        -1.1205    5.3217   -5.3601 C.3       1 <0>        -0.1463
     14 C11        -0.4240    3.1697   -6.4214 C.3       1 <0>        -0.1893
     15 H1          0.9411   -1.3994    1.3012 H         1 <0>         0.0704
     16 H2          1.9162    0.0780    1.1153 H         1 <0>         0.0682
     17 H3          0.4506    0.1002    2.1252 H         1 <0>         0.0791
     18 H4         -0.9123   -0.3830    0.0690 H         1 <0>         0.0914
     19 H5         -0.0439    1.1682   -0.0200 H         1 <0>         0.0872
     20 H6          1.7937    0.0051   -1.2852 H         1 <0>         0.1451
     21 H7          1.2764   -2.2831   -0.3858 H         1 <0>         0.1188
     22 H8         -0.2038   -2.2994   -1.3743 H         1 <0>         0.0909
     23 H9          1.1614   -2.0090   -3.4237 H         1 <0>         0.0516
     24 H10         2.6417   -1.9926   -2.4353 H         1 <0>         0.0731
     25 H11         1.6517   -3.4688   -2.5310 H         1 <0>         0.0861
     26 H12         0.4525   -0.2745   -3.2818 H         1 <0>         0.4339
     27 H13        -0.3958    1.9985   -1.6310 H         1 <0>         0.1745
     28 H14         1.1735    1.8835   -2.4632 H         1 <0>         0.1742
     29 H15        -3.1577    3.7781   -4.4127 H         1 <0>         0.0674
     30 H16        -3.0990    3.6384   -6.1863 H         1 <0>         0.0839
     31 H17        -2.6615    2.2450   -5.1688 H         1 <0>         0.0804
     32 H18        -0.0823    5.6537   -5.3519 H         1 <0>         0.0726
     33 H19        -1.5928    5.6290   -6.2932 H         1 <0>         0.0901
     34 H20        -1.6515    5.7687   -4.5197 H         1 <0>         0.0726
     35 H21        -0.4588    2.0836   -6.3370 H         1 <0>         0.0803
     36 H22        -0.8963    3.4770   -7.3544 H         1 <0>         0.0839
     37 H23         0.6142    3.5017   -6.4132 H         1 <0>         0.0674
     38 H24        -0.9228   -0.1683   -2.3807 H         1 <0>         0.4335
@<TRIPOS>BOND
     1    1    2 1
     2    1   15 1
     3    1   16 1
     4    1   17 1
     5    2    3 1
     6    2   18 1
     7    2   19 1
     8    3    4 1
     9    3    6 1
    10    3   20 1
    11    4    5 1
    12    4   21 1
    13    4   22 1
    14    5   23 1
    15    5   24 1
    16    5   25 1
    17    6    7 1
    18    6   26 1
    19    6   38 1
    20    7    8 1
    21    7   27 1
    22    7   28 1
    23    8    9 2
    24    8   10 1
    25   10   11 1
    26   11   12 1
    27   11   13 1
    28   11   14 1
    29   12   29 1
    30   12   30 1
    31   12   31 1
    32   13   32 1
    33   13   33 1
    34   13   34 1
    35   14   35 1
    36   14   36 1
    37   14   37 1
@<TRIPOS>MOLECULE
ZINC45308713
   44    43     0     0     0
SMALL
USER_CHARGES

@<TRIPOS>ATOM
      1 C1          1.1264   -2.3561   -0.4744 C.3       1 <0>        -0.1751
      2 C2          0.6283   -2.0030    0.9285 C.3       1 <0>        -0.1494
      3 C3          0.8491   -0.5114    1.1877 C.3       1 <0>         0.0237
      4 H1          0.3446    0.0700    0.4160 H         1 <0>         0.1373
      5 C4          0.2793   -0.1422    2.5588 C.3       1 <0>        -0.1848
      6 N1          2.2881   -0.2174    1.1601 N.4       1 <0>        -0.3854
      7 C5          2.9480   -0.8954    2.2838 C.3       1 <0>        -0.0637
      8 C6          2.4939    1.2327    1.2740 C.3       1 <0>        -0.0111
      9 C7          3.9846    1.5486    1.1364 C.3       1 <0>        -0.1574
     10 C8          4.1989    3.0589    1.2550 C.3       1 <0>        -0.1022
     11 C9          5.6896    3.3748    1.1173 C.3       1 <0>         0.2153
     12 C10         6.4666    2.6608    2.2252 C.3       1 <0>        -0.1483
     13 C11         6.1700    2.9126   -0.1951 C.1       1 <0>         0.1581
     14 N2          6.5407    2.5559   -1.2079 N.1       1 <0>        -0.4062
     15 N3          5.8954    4.8248    1.2312 N.3       1 <0>        -0.6595
     16 C12         7.3184    5.1662    1.1036 C.3       1 <0>         0.0428
     17 C13         7.4925    6.6813    1.2272 C.3       1 <0>        -0.1537
     18 H2          2.1932   -2.1439   -0.5452 H         1 <0>         0.0493
     19 H3          0.9531   -3.4152   -0.6656 H         1 <0>         0.0847
     20 H4          0.5878   -1.7609   -1.2117 H         1 <0>         0.0723
     21 H5         -0.4348   -2.2316    1.0048 H         1 <0>         0.1120
     22 H6          1.1791   -2.5856    1.6670 H         1 <0>         0.0887
     23 H7         -0.7884   -0.3603    2.5793 H         1 <0>         0.1051
     24 H8          0.7838   -0.7236    3.3305 H         1 <0>         0.0840
     25 H9          0.4366    0.9205    2.7434 H         1 <0>         0.0822
     26 H10         2.5227   -0.5406    3.2226 H         1 <0>         0.1290
     27 H11         2.7953   -1.9713    2.1993 H         1 <0>         0.1253
     28 H12         4.0158   -0.6772    2.2634 H         1 <0>         0.1248
     29 H13         1.9403    1.7413    0.4847 H         1 <0>         0.1312
     30 H14         2.1381    1.5749    2.2458 H         1 <0>         0.1366
     31 H15         4.5381    1.0400    1.9256 H         1 <0>         0.0987
     32 H16         4.3403    1.2063    0.1645 H         1 <0>         0.0836
     33 H17         3.6453    3.5675    0.4657 H         1 <0>         0.0840
     34 H18         3.8432    3.4011    2.2268 H         1 <0>         0.1081
     35 H19         6.3139    1.5849    2.1407 H         1 <0>         0.0671
     36 H20         7.5286    2.8859    2.1272 H         1 <0>         0.0728
     37 H21         6.1109    3.0031    3.1970 H         1 <0>         0.0917
     38 H22         5.3415    5.3232    0.5508 H         1 <0>         0.3525
     39 H23         7.8833    4.6700    1.8928 H         1 <0>         0.0861
     40 H24         7.6855    4.8364    0.1317 H         1 <0>         0.0337
     41 H25         6.9276    7.1775    0.4380 H         1 <0>         0.0561
     42 H26         7.1255    7.0111    2.1991 H         1 <0>         0.0698
     43 H27         8.5484    6.9346    1.1325 H         1 <0>         0.0680
     44 H28         2.6819   -0.5457    0.2911 H         1 <0>         0.4222
@<TRIPOS>BOND
     1    1    2 1
     2    1   18 1
     3    1   19 1
     4    1   20 1
     5    2    3 1
     6    2   21 1
     7    2   22 1
     8    3    4 1
     9    3    5 1
    10    3    6 1
    11    5   23 1
    12    5   24 1
    13    5   25 1
    14    6    7 1
    15    6    8 1
    16    6   44 1
    17    7   26 1
    18    7   27 1
    19    7   28 1
    20    8    9 1
    21    8   29 1
    22    8   30 1
    23    9   10 1
    24    9   31 1
    25    9   32 1
    26   10   11 1
    27   10   33 1
    28   10   34 1
    29   11   12 1
    30   11   13 1
    31   11   15 1
    32   12   35 1
    33   12   36 1
    34   12   37 1
    35   13   14 3
    36   15   16 1
    37   15   38 1
    38   16   17 1
    39   16   39 1
    40   16   40 1
    41   17   41 1
    42   17   42 1
    43   17   43 1
@<TRIPOS>MOLECULE
ZINC52601734
   40    40     0     0     0
SMALL
USER_CHARGES

@<TRIPOS>ATOM
      1 C1         -1.4651   -0.5000   -0.0784 C.3       1 <0>        -0.1590
      2 C2          0.0190   -0.1505    0.0480 C.3       1 <0>        -0.1126
      3 C3          0.6071   -0.8574    1.2708 C.3       1 <0>        -0.1546
      4 C4          0.7596   -0.6076   -1.2105 C.3       1 <0>         0.0686
      5 H1          0.2935   -0.1609   -2.0887 H         1 <0>         0.0889
      6 C5          0.6914   -2.1323   -1.3169 C.3       1 <0>        -0.0145
      7 N1          1.4024   -2.5712   -2.5251 N.4       1 <0>        -0.5071
      8 C6          1.3369   -4.0352   -2.6273 C.3       1 <0>         0.0235
      9 C7         -0.1162   -4.4675   -2.8332 C.3       1 <0>        -0.1857
     10 C8          2.1811   -4.5018   -3.8149 C.3       1 <0>        -0.1844
     11 O1          2.1259   -0.1960   -1.1350 O.3       1 <0>        -0.3821
     12 C9          2.3811    1.0822   -1.7209 C.3       1 <0>         0.1456
     13 C10         3.8238    1.4573   -1.4994 C.2       1 <0>        -0.0408
     14 C11         4.8463    1.1731   -2.3258 C.2       1 <0>        -0.1752
     15 C12         6.0131    1.7079   -1.7328 C.2       1 <0>        -0.2206
     16 C13         5.6337    2.2869   -0.5795 C.2       1 <0>        -0.0118
     17 O2          4.3058    2.1370   -0.4461 O.3       1 <0>        -0.1689
     18 H2         -1.8587   -0.0839   -1.0058 H         1 <0>         0.0623
     19 H3         -1.5838   -1.5835   -0.0873 H         1 <0>         0.0576
     20 H4         -2.0102   -0.0817    0.7677 H         1 <0>         0.0742
     21 H5          0.1299    0.9277    0.1633 H         1 <0>         0.0934
     22 H6          0.4963   -1.9356    1.1555 H         1 <0>         0.0536
     23 H7          1.6645   -0.6083    1.3608 H         1 <0>         0.0689
     24 H8          0.0796   -0.5317    2.1673 H         1 <0>         0.0685
     25 H9          1.1574   -2.5791   -0.4386 H         1 <0>         0.1443
     26 H10        -0.3508   -2.4463   -1.3744 H         1 <0>         0.1482
     27 H11         0.9709   -2.1577   -3.3381 H         1 <0>         0.4227
     28 H12         1.7221   -4.4810   -1.7102 H         1 <0>         0.1393
     29 H13        -0.7176   -4.1351   -1.9871 H         1 <0>         0.0804
     30 H14        -0.5015   -4.0217   -3.7503 H         1 <0>         0.0824
     31 H15        -0.1648   -5.5538   -2.9090 H         1 <0>         0.1073
     32 H16         3.2163   -4.1938   -3.6682 H         1 <0>         0.0822
     33 H17         2.1325   -5.5881   -3.8907 H         1 <0>         0.1075
     34 H18         1.7958   -4.0560   -4.7320 H         1 <0>         0.0815
     35 H19         2.1772    1.0387   -2.7908 H         1 <0>         0.0882
     36 H20         1.7363    1.8292   -1.2582 H         1 <0>         0.0802
     37 H21         4.7875    0.6385   -3.2624 H         1 <0>         0.1490
     38 H22         7.0164    1.6604   -2.1296 H         1 <0>         0.1552
     39 H23         6.2858    2.7904    0.1189 H         1 <0>         0.2103
     40 H24         2.3672   -2.2806   -2.4718 H         1 <0>         0.4337
@<TRIPOS>BOND
     1    1    2 1
     2    1   18 1
     3    1   19 1
     4    1   20 1
     5    2    3 1
     6    2    4 1
     7    2   21 1
     8    3   22 1
     9    3   23 1
    10    3   24 1
    11    4    5 1
    12    4    6 1
    13    4   11 1
    14    6    7 1
    15    6   25 1
    16    6   26 1
    17    7    8 1
    18    7   27 1
    19    7   40 1
    20    8    9 1
    21    8   10 1
    22    8   28 1
    23    9   29 1
    24    9   30 1
    25    9   31 1
    26   10   32 1
    27   10   33 1
    28   10   34 1
    29   11   12 1
    30   12   13 1
    31   12   35 1
    32   12   36 1
    33   13   17 1
    34   13   14 2
    35   14   15 1
    36   14   37 1
    37   15   16 2
    38   15   38 1
    39   16   17 1
    40   16   39 1
@<TRIPOS>MOLECULE
ZINC53591513
   44    44     0     0     0
SMALL
USER_CHARGES

@<TRIPOS>ATOM
      1 C1         -0.0187    1.5258    0.0104 C.3       1 <0>        -0.1586
      2 C2          0.0021   -0.0041    0.0020 C.3       1 <0>        -0.1394
      3 C3          0.7421   -0.5109    1.2415 C.3       1 <0>         0.0545
      4 C4          2.1775    0.0187    1.2307 C.3       1 <0>        -0.1804
      5 C5          0.0259   -0.0175    2.5003 C.3       1 <0>        -0.1797
      6 N1          0.7620   -1.9797    1.2335 N.4       1 <0>        -0.5036
      7 C6          1.4725   -2.4664    2.4236 C.3       1 <0>        -0.0132
      8 C7          1.4932   -3.9962    2.4152 C.3       1 <0>         0.0632
      9 H1          2.0034   -4.3477    1.5184 H         1 <0>         0.0844
     10 C8          2.2332   -4.5030    3.6547 C.3       1 <0>        -0.1777
     11 O1          0.1526   -4.4908    2.4253 O.3       1 <0>        -0.3906
     12 C9         -0.0077   -5.7492    1.7673 C.3       1 <0>         0.0695
     13 C10        -1.4742   -6.1793    1.8394 C.3       1 <0>        -0.1253
     14 H2         -1.8197   -6.1817    2.8732 H         1 <0>         0.0985
     15 C11        -1.6606   -7.5779    1.2024 C.3       1 <0>        -0.1501
     16 C12        -2.9941   -7.4081    0.4309 C.3       1 <0>         0.0455
     17 O2         -2.9247   -6.0551   -0.0681 O.3       1 <0>        -0.3777
     18 C13        -2.3519   -5.2492    0.9796 C.3       1 <0>         0.0560
     19 H3          1.0039    1.9031    0.0027 H         1 <0>         0.0694
     20 H4         -0.5459    1.8868   -0.8726 H         1 <0>         0.0772
     21 H5         -0.5289    1.8773    0.9072 H         1 <0>         0.0698
     22 H6         -1.0205   -0.3814    0.0098 H         1 <0>         0.0875
     23 H7          0.5123   -0.3556   -0.8948 H         1 <0>         0.0869
     24 H8          2.1627    1.1086    1.2367 H         1 <0>         0.1093
     25 H9          2.7046   -0.3424    2.1137 H         1 <0>         0.0818
     26 H10         2.6876   -0.3328    0.3339 H         1 <0>         0.0822
     27 H11        -0.9967   -0.3948    2.5081 H         1 <0>         0.0830
     28 H12         0.5531   -0.3786    3.3834 H         1 <0>         0.0820
     29 H13         0.0111    1.0724    2.5063 H         1 <0>         0.1084
     30 H14        -0.1846   -2.3290    1.2406 H         1 <0>         0.4308
     31 H15         2.4951   -2.0891    2.4158 H         1 <0>         0.1467
     32 H16         0.9623   -2.1149    3.3204 H         1 <0>         0.1431
     33 H17         1.7230   -4.1515    4.5515 H         1 <0>         0.0775
     34 H18         2.2480   -5.5929    3.6487 H         1 <0>         0.0790
     35 H19         3.2558   -4.1258    3.6469 H         1 <0>         0.0790
     36 H20         0.2923   -5.6543    0.7237 H         1 <0>         0.0608
     37 H21         0.6150   -6.4975    2.2577 H         1 <0>         0.0675
     38 H22        -0.8425   -7.8065    0.5195 H         1 <0>         0.0819
     39 H23        -1.7506   -8.3462    1.9704 H         1 <0>         0.0906
     40 H24        -3.0537   -8.1187   -0.3936 H         1 <0>         0.1011
     41 H25        -3.8441   -7.5263    1.1029 H         1 <0>         0.0679
     42 H26        -3.1433   -4.8163    1.5915 H         1 <0>         0.0646
     43 H27        -1.7401   -4.4576    0.5470 H         1 <0>         0.0733
     44 H28         1.2343   -2.3051    0.4033 H         1 <0>         0.4235
@<TRIPOS>BOND
     1    1    2 1
     2    1   19 1
     3    1   20 1
     4    1   21 1
     5    2    3 1
     6    2   22 1
     7    2   23 1
     8    3    4 1
     9    3    5 1
    10    3    6 1
    11    4   24 1
    12    4   25 1
    13    4   26 1
    14    5   27 1
    15    5   28 1
    16    5   29 1
    17    6    7 1
    18    6   30 1
    19    6   44 1
    20    7    8 1
    21    7   31 1
    22    7   32 1
    23    8    9 1
    24    8   10 1
    25    8   11 1
    26   10   33 1
    27   10   34 1
    28   10   35 1
    29   11   12 1
    30   12   13 1
    31   12   36 1
    32   12   37 1
    33   13   14 1
    34   13   18 1
    35   13   15 1
    36   15   16 1
    37   15   38 1
    38   15   39 1
    39   16   17 1
    40   16   40 1
    41   16   41 1
    42   17   18 1
    43   18   42 1
    44   18   43 1
@<TRIPOS>MOLECULE
ZINC61936639
   45    45     0     0     0
SMALL
USER_CHARGES

@<TRIPOS>ATOM
      1 C1          0.6224    0.2055    1.5190 C.3       1 <0>        -0.1568
      2 C2         -0.1388    0.5430    0.2354 C.3       1 <0>        -0.1453
      3 C3          0.5363   -0.1438   -0.9535 C.3       1 <0>         0.0230
      4 C4          0.4399   -1.6617   -0.7877 C.3       1 <0>        -0.1499
      5 C5          1.2217   -2.3480   -1.9097 C.3       1 <0>        -0.1734
      6 N1         -0.1359    0.2567   -2.1967 N.4       1 <0>        -0.5008
      7 C6          0.0679    1.6939   -2.4225 C.3       1 <0>        -0.0050
      8 C7         -0.5196    2.0852   -3.7799 C.3       1 <0>         0.0522
      9 H1          0.0240    1.5714   -4.5728 H         1 <0>         0.1099
     10 C8         -0.3941    3.5978   -3.9730 C.3       1 <0>        -0.1877
     11 N2         -1.9366    1.7011   -3.8293 N.3       1 <0>        -0.5454
     12 C9         -2.7161    2.4845   -2.9059 C.3       1 <0>         0.0359
     13 C10        -3.8377    1.6607   -2.2321 C.3       1 <0>        -0.1439
     14 C11        -4.5097    0.7091   -3.2481 C.3       1 <0>         0.0650
     15 O1         -4.7099    1.2942   -4.5031 O.3       1 <0>        -0.3664
     16 C12        -3.6422    1.0046   -5.4329 C.3       1 <0>         0.0584
     17 C13        -2.4818    1.8622   -5.1936 C.3       1 <0>         0.0207
     18 H2          0.5348   -0.8615    1.7235 H         1 <0>         0.0696
     19 H3          1.6736    0.4670    1.3974 H         1 <0>         0.0667
     20 H4          0.2012    0.7706    2.3505 H         1 <0>         0.0769
     21 H5         -1.1677    0.1934    0.3206 H         1 <0>         0.0873
     22 H6         -0.1332    1.6222    0.0828 H         1 <0>         0.0842
     23 H7          1.5848    0.1512   -0.9960 H         1 <0>         0.1387
     24 H8          0.8597   -1.9494    0.1762 H         1 <0>         0.1144
     25 H9         -0.6055   -1.9666   -0.8342 H         1 <0>         0.0878
     26 H10         0.8018   -2.0603   -2.8736 H         1 <0>         0.0507
     27 H11         2.2671   -2.0431   -1.8632 H         1 <0>         0.0717
     28 H12         1.1530   -3.4294   -1.7916 H         1 <0>         0.0839
     29 H13         0.2502   -0.2633   -2.9704 H         1 <0>         0.4250
     30 H14        -0.4296    2.2595   -1.6346 H         1 <0>         0.1318
     31 H15         1.1349    1.9158   -2.4107 H         1 <0>         0.1381
     32 H16         0.6596    3.8702   -4.0336 H         1 <0>         0.0767
     33 H17        -0.8983    3.8895   -4.8943 H         1 <0>         0.0791
     34 H18        -0.8542    4.1112   -3.1287 H         1 <0>         0.0705
     35 H19        -2.0561    2.8795   -2.1337 H         1 <0>         0.0678
     36 H20        -3.1659    3.3192   -3.4436 H         1 <0>         0.0627
     37 H21        -3.4116    1.0733   -1.4187 H         1 <0>         0.0657
     38 H22        -4.5877    2.3403   -1.8275 H         1 <0>         0.0801
     39 H23        -3.8816   -0.1734   -3.3695 H         1 <0>         0.0503
     40 H24        -5.4749    0.3965   -2.8496 H         1 <0>         0.0822
     41 H25        -3.3445   -0.0380   -5.3210 H         1 <0>         0.0617
     42 H26        -4.0009    1.1650   -6.4496 H         1 <0>         0.1037
     43 H27        -2.7757    2.9022   -5.3361 H         1 <0>         0.0631
     44 H28        -1.7043    1.6145   -5.9163 H         1 <0>         0.0887
     45 H29        -1.1236    0.0647   -2.1219 H         1 <0>         0.4305
@<TRIPOS>BOND
     1    1    2 1
     2    1   18 1
     3    1   19 1
     4    1   20 1
     5    2    3 1
     6    2   21 1
     7    2   22 1
     8    3    4 1
     9    3    6 1
    10    3   23 1
    11    4    5 1
    12    4   24 1
    13    4   25 1
    14    5   26 1
    15    5   27 1
    16    5   28 1
    17    6    7 1
    18    6   29 1
    19    6   45 1
    20    7    8 1
    21    7   30 1
    22    7   31 1
    23    8    9 1
    24    8   10 1
    25    8   11 1
    26   10   32 1
    27   10   33 1
    28   10   34 1
    29   11   17 1
    30   11   12 1
    31   12   13 1
    32   12   35 1
    33   12   36 1
    34   13   14 1
    35   13   37 1
    36   13   38 1
    37   14   15 1
    38   14   39 1
    39   14   40 1
    40   15   16 1
    41   16   17 1
    42   16   41 1
    43   16   42 1
    44   17   43 1
    45   17   44 1
@<TRIPOS>MOLECULE
ZINC37493031
   45    46     0     0     0
SMALL
USER_CHARGES

@<TRIPOS>ATOM
      1 C1         -0.0167    1.3784    0.0096 C.ar      1 <0>        -0.0485
      2 C2          1.1695    2.0865    0.0021 C.ar      1 <0>        -0.1453
      3 C3          2.3802    1.4093   -0.0131 C.ar      1 <0>         0.1704
      4 C4          2.3963    0.0221   -0.0206 C.ar      1 <0>        -0.2120
      5 C5          1.2074   -0.6814   -0.0130 C.ar      1 <0>        -0.0466
      6 C6          0.0021   -0.0041    0.0020 C.ar      1 <0>        -0.2110
      7 C7         -1.2934   -0.7740    0.0107 C.3       1 <0>         0.0522
      8 N1         -1.7280   -1.0167   -1.3714 N.4       1 <0>        -0.5098
      9 C8         -2.9908   -1.7672   -1.3629 C.3       1 <0>        -0.0119
     10 C9         -3.4435   -2.0201   -2.8024 C.3       1 <0>        -0.1422
     11 C10        -4.7587   -2.8017   -2.7936 C.3       1 <0>        -0.0902
     12 C11        -5.9173   -1.9076   -2.2864 C.3       1 <0>        -0.1272
     13 C12        -7.1671   -2.5883   -2.8977 C.3       1 <0>        -0.1282
     14 C13        -6.7040   -3.0424   -4.2974 C.3       1 <0>        -0.1299
     15 C14        -5.1727   -3.1781   -4.2312 C.3       1 <0>        -0.1209
     16 O1          3.5484    2.1036   -0.0209 O.3       1 <0>        -0.2801
     17 C15         4.7565    1.3405   -0.0365 C.3       1 <0>         0.0356
     18 C16         5.9399    2.2736   -0.0433 C.2       1 <0>         0.5177
     19 O2          5.7659    3.4738   -0.0356 O.2       1 <0>        -0.5129
     20 N2          7.1917    1.7742   -0.0580 N.am      1 <0>        -0.8464
     21 H1         -0.9594    1.9052    0.0259 H         1 <0>         0.1400
     22 H2          1.1543    3.1664    0.0076 H         1 <0>         0.1469
     23 H3          3.3375   -0.5074   -0.0328 H         1 <0>         0.1407
     24 H4          1.2194   -1.7613   -0.0189 H         1 <0>         0.1352
     25 H5         -1.1460   -1.7274    0.5180 H         1 <0>         0.1361
     26 H6         -2.0553   -0.1973    0.5352 H         1 <0>         0.1369
     27 H7         -1.8644   -0.1341   -1.8410 H         1 <0>         0.4271
     28 H8         -2.8434   -2.7207   -0.8556 H         1 <0>         0.1319
     29 H9         -3.7527   -1.1906   -0.8384 H         1 <0>         0.1323
     30 H10        -3.5909   -1.0666   -3.3097 H         1 <0>         0.0883
     31 H11        -2.6816   -2.5967   -3.3269 H         1 <0>         0.0875
     32 H12        -4.6659   -3.6957   -2.1769 H         1 <0>         0.0858
     33 H13        -5.9653   -1.9183   -1.1975 H         1 <0>         0.0680
     34 H14        -5.8109   -0.8890   -2.6594 H         1 <0>         0.0707
     35 H15        -7.4656   -3.4476   -2.2972 H         1 <0>         0.0693
     36 H16        -7.9878   -1.8756   -2.9800 H         1 <0>         0.0707
     37 H17        -7.1537   -4.0038   -4.5458 H         1 <0>         0.0687
     38 H18        -6.9809   -2.2966   -5.0425 H         1 <0>         0.0673
     39 H19        -4.7064   -2.4981   -4.9441 H         1 <0>         0.0671
     40 H20        -4.8792   -4.2053   -4.4474 H         1 <0>         0.0694
     41 H21         4.7979    0.7076    0.8500 H         1 <0>         0.1012
     42 H22         4.7806    0.7165   -0.9299 H         1 <0>         0.1005
     43 H23         7.3309    0.8143   -0.0641 H         1 <0>         0.4047
     44 H24         7.9534    2.3748   -0.0624 H         1 <0>         0.4149
     45 H25        -1.0227   -1.5505   -1.8569 H         1 <0>         0.4262
@<TRIPOS>BOND
     1    1    6 ar
     2    1    2 ar
     3    1   21 1
     4    2    3 ar
     5    2   22 1
     6    3    4 ar
     7    3   16 1
     8    4    5 ar
     9    4   23 1
    10    5    6 ar
    11    5   24 1
    12    6    7 1
    13    7    8 1
    14    7   25 1
    15    7   26 1
    16    8    9 1
    17    8   27 1
    18    8   45 1
    19    9   10 1
    20    9   28 1
    21    9   29 1
    22   10   11 1
    23   10   30 1
    24   10   31 1
    25   11   15 1
    26   11   12 1
    27   11   32 1
    28   12   13 1
    29   12   33 1
    30   12   34 1
    31   13   14 1
    32   13   35 1
    33   13   36 1
    34   14   15 1
    35   14   37 1
    36   14   38 1
    37   15   39 1
    38   15   40 1
    39   16   17 1
    40   17   18 1
    41   17   41 1
    42   17   42 1
    43   18   19 2
    44   18   20 am
    45   20   43 1
    46   20   44 1
@<TRIPOS>MOLECULE
ZINC45276739
   45    46     0     0     0
SMALL
USER_CHARGES

@<TRIPOS>ATOM
      1 C1          1.2532    1.1939   -0.0187 C.3       1 <0>        -0.1528
      2 C2          0.8109   -0.2644    0.1171 C.3       1 <0>        -0.1534
      3 C3         -0.6912   -0.3691   -0.1539 C.3       1 <0>        -0.0107
      4 N1         -1.0923   -1.7823   -0.1493 N.4       1 <0>        -0.3957
      5 C4         -2.5042   -1.8919   -0.5399 C.3       1 <0>         0.0161
      6 C5         -2.6688   -1.4356   -1.9909 C.3       1 <0>        -0.2194
      7 C6         -3.5301   -0.1976   -2.2488 C.3       1 <0>        -0.1605
      8 C7         -4.0528   -1.5852   -2.6258 C.3       1 <0>        -0.1473
      9 C8         -0.9126   -2.3380    1.1986 C.3       1 <0>        -0.0176
     10 C9         -0.7546   -3.8570    1.1072 C.3       1 <0>         0.0059
     11 C10        -0.4184   -4.4100    2.4682 C.ar      1 <0>        -0.1077
     12 C11         0.2824   -3.6365    3.3746 C.ar      1 <0>        -0.0858
     13 C12         0.5908   -4.1437    4.6230 C.ar      1 <0>        -0.1002
     14 C13         0.1980   -5.4242    4.9652 C.ar      1 <0>        -0.0925
     15 C14        -0.5035   -6.1973    4.0591 C.ar      1 <0>        -0.0975
     16 C15        -0.8157   -5.6885    2.8122 C.ar      1 <0>        -0.1229
     17 C16         0.3539   -4.1896    0.1420 C.2       1 <0>         0.4790
     18 O1          1.5007   -3.8614    0.3942 O.co2     1 <0>        -0.5869
     19 O2          0.1039   -4.7869   -0.8911 O.co2     1 <0>        -0.6413
     20 N2         -2.0113   -4.4524    0.6336 N.4       1 <0>        -0.6260
     21 H1          2.3234    1.2685    0.1743 H         1 <0>         0.0800
     22 H2          1.0408    1.5455   -1.0284 H         1 <0>         0.0673
     23 H3          0.7106    1.8067    0.7011 H         1 <0>         0.0660
     24 H4          1.3536   -0.8772   -0.6027 H         1 <0>         0.0944
     25 H5          1.0234   -0.6160    1.1268 H         1 <0>         0.0867
     26 H6         -1.2386    0.1664    0.6218 H         1 <0>         0.1337
     27 H7         -0.9165    0.0693   -1.1261 H         1 <0>         0.1403
     28 H8         -2.8277   -2.9285   -0.4460 H         1 <0>         0.0981
     29 H9         -3.1110   -1.2616    0.1103 H         1 <0>         0.1458
     30 H10        -1.8014   -1.5883   -2.6330 H         1 <0>         0.1340
     31 H11        -3.9794    0.2918   -1.3846 H         1 <0>         0.1084
     32 H12        -3.2293    0.4646   -3.0606 H         1 <0>         0.1149
     33 H13        -4.0959   -1.8359   -3.6857 H         1 <0>         0.1173
     34 H14        -4.8461   -2.0087   -2.0097 H         1 <0>         0.1077
     35 H15        -0.0208   -1.9067    1.6535 H         1 <0>         0.1773
     36 H16        -1.7835   -2.0993    1.8091 H         1 <0>         0.1493
     37 H17         0.5892   -2.6361    3.1073 H         1 <0>         0.1288
     38 H18         1.1389   -3.5397    5.3309 H         1 <0>         0.1390
     39 H19         0.4396   -5.8207    5.9403 H         1 <0>         0.1381
     40 H20        -0.8101   -7.1978    4.3263 H         1 <0>         0.1385
     41 H21        -1.3670   -6.2912    2.1056 H         1 <0>         0.1186
     42 H22        -2.1628   -4.1957   -0.3304 H         1 <0>         0.4287
     43 H23        -1.9571   -5.4571    0.7096 H         1 <0>         0.4454
     44 H24        -0.5215   -2.2961   -0.8037 H         1 <0>         0.4365
     45 H25        -2.7771   -4.1133    1.1962 H         1 <0>         0.4223
@<TRIPOS>BOND
     1    1    2 1
     2    1   21 1
     3    1   22 1
     4    1   23 1
     5    2    3 1
     6    2   24 1
     7    2   25 1
     8    3    4 1
     9    3   26 1
    10    3   27 1
    11    4    5 1
    12    4    9 1
    13    4   44 1
    14    5    6 1
    15    5   28 1
    16    5   29 1
    17    6    8 1
    18    6    7 1
    19    6   30 1
    20    7    8 1
    21    7   31 1
    22    7   32 1
    23    8   33 1
    24    8   34 1
    25    9   10 1
    26    9   35 1
    27    9   36 1
    28   10   11 1
    29   10   17 1
    30   10   20 1
    31   11   16 ar
    32   11   12 ar
    33   12   13 ar
    34   12   37 1
    35   13   14 ar
    36   13   38 1
    37   14   15 ar
    38   14   39 1
    39   15   16 ar
    40   15   40 1
    41   16   41 1
    42   17   18 2
    43   17   19 1
    44   20   42 1
    45   20   43 1
    46   20   45 1
@<TRIPOS>MOLECULE
ZINC49281669
   48    48     0     0     0
SMALL
USER_CHARGES

@<TRIPOS>ATOM
      1 C1         -0.0187    1.5258    0.0104 C.3       1 <0>        -0.1550
      2 C2          0.0021   -0.0041    0.0020 C.3       1 <0>        -0.1268
      3 C3          0.7182   -0.4975   -1.2568 C.3       1 <0>         0.1732
      4 C4         -0.0218    0.0093   -2.4963 C.3       1 <0>        -0.1629
      5 C5          2.1536    0.0321   -1.2676 C.3       1 <0>        -0.1660
      6 N1          0.7381   -1.9623   -1.2648 N.am      1 <0>        -0.7227
      7 C6          1.3211   -2.6228   -2.2848 C.2       1 <0>         0.4920
      8 O1          1.8293   -2.0044   -3.1960 O.2       1 <0>        -0.5210
      9 C7          1.3415   -4.1296   -2.2931 C.3       1 <0>         0.0936
     10 N2          2.0272   -4.6021   -3.4984 N.pl3     1 <0>        -0.5919
     11 C8          3.4747   -4.8267   -3.4772 C.3       1 <0>         0.1151
     12 C9          3.7607   -6.2703   -3.0586 C.3       1 <0>        -0.1748
     13 C10         1.3009   -4.8383   -4.6679 C.ar      1 <0>         0.2659
     14 C11        -0.0708   -4.6203   -4.6914 C.ar      1 <0>        -0.1981
     15 C12        -0.7858   -4.8544   -5.8495 C.ar      1 <0>        -0.0387
     16 C13        -0.1378   -5.3058   -6.9847 C.ar      1 <0>        -0.2437
     17 C14         1.2276   -5.5239   -6.9647 C.ar      1 <0>        -0.0394
     18 C15         1.9496   -5.2863   -5.8117 C.ar      1 <0>        -0.1947
     19 C16        -0.9216   -5.5611   -8.2463 C.3       1 <0>         0.0571
     20 N3         -0.9618   -4.3350   -9.0544 N.4       1 <0>        -0.6388
     21 H1          1.0039    1.9031    0.0027 H         1 <0>         0.0620
     22 H2         -0.5459    1.8868   -0.8726 H         1 <0>         0.0606
     23 H3         -0.5289    1.8773    0.9072 H         1 <0>         0.0617
     24 H4          0.5293   -0.3651    0.8851 H         1 <0>         0.0699
     25 H5         -1.0205   -0.3814    0.0098 H         1 <0>         0.0685
     26 H6         -0.0366    1.0992   -2.4903 H         1 <0>         0.0687
     27 H7          0.4884   -0.3422   -3.3931 H         1 <0>         0.0737
     28 H8         -1.0444   -0.3679   -2.4886 H         1 <0>         0.0520
     29 H9          2.6808   -0.3290   -0.3846 H         1 <0>         0.0547
     30 H10         2.6638   -0.3194   -2.1644 H         1 <0>         0.0748
     31 H11         2.1388    1.1220   -1.2617 H         1 <0>         0.0691
     32 H12         0.3316   -2.4569   -0.5361 H         1 <0>         0.4004
     33 H13         1.8687   -4.4907   -1.4101 H         1 <0>         0.1127
     34 H14         0.3189   -4.5069   -2.2854 H         1 <0>         0.1083
     35 H15         3.8847   -4.6487   -4.4714 H         1 <0>         0.0822
     36 H16         3.9381   -4.1435   -2.7654 H         1 <0>         0.0817
     37 H17         3.3507   -6.4483   -2.0645 H         1 <0>         0.0602
     38 H18         3.2974   -6.9536   -3.7704 H         1 <0>         0.0596
     39 H19         4.8377   -6.4375   -3.0428 H         1 <0>         0.0733
     40 H20        -0.5775   -4.2684   -3.8050 H         1 <0>         0.1270
     41 H21        -1.8523   -4.6851   -5.8685 H         1 <0>         0.1274
     42 H22         1.7305   -5.8764   -7.8531 H         1 <0>         0.1287
     43 H23         3.0166   -5.4525   -5.7980 H         1 <0>         0.1342
     44 H24        -0.4425   -6.3568   -8.8169 H         1 <0>         0.1340
     45 H25        -1.9376   -5.8600   -7.9886 H         1 <0>         0.1335
     46 H26        -1.4865   -4.5060   -9.8991 H         1 <0>         0.4334
     47 H27        -1.4052   -3.5985   -8.5262 H         1 <0>         0.4325
     48 H28        -0.0212   -4.0584   -9.2929 H         1 <0>         0.4328
@<TRIPOS>BOND
     1    1    2 1
     2    1   21 1
     3    1   22 1
     4    1   23 1
     5    2    3 1
     6    2   24 1
     7    2   25 1
     8    3    4 1
     9    3    5 1
    10    3    6 1
    11    4   26 1
    12    4   27 1
    13    4   28 1
    14    5   29 1
    15    5   30 1
    16    5   31 1
    17    6    7 am
    18    6   32 1
    19    7    8 2
    20    7    9 1
    21    9   10 1
    22    9   33 1
    23    9   34 1
    24   10   11 1
    25   10   13 1
    26   11   12 1
    27   11   35 1
    28   11   36 1
    29   12   37 1
    30   12   38 1
    31   12   39 1
    32   13   18 ar
    33   13   14 ar
    34   14   15 ar
    35   14   40 1
    36   15   16 ar
    37   15   41 1
    38   16   17 ar
    39   16   19 1
    40   17   18 ar
    41   17   42 1
    42   18   43 1
    43   19   20 1
    44   19   44 1
    45   19   45 1
    46   20   46 1
    47   20   47 1
    48   20   48 1
@<TRIPOS>MOLECULE
ZINC53126384
   53    53     0     0     0
SMALL
USER_CHARGES

@<TRIPOS>ATOM
      1 C1         -0.3958    2.7948    0.5814 C.3       1 <0>        -0.1549
      2 C2         -0.2701    1.3772    0.0198 C.3       1 <0>        -0.1363
      3 C3         -1.6648    0.7743   -0.1602 C.3       1 <0>         0.1418
      4 C4         -1.5460   -0.5928   -0.8368 C.3       1 <0>        -0.1394
      5 C5         -2.9445   -1.1400   -1.1297 C.3       1 <0>        -0.1460
      6 N1         -2.3017    0.6172    1.1497 N.am      1 <0>        -0.6945
      7 C6         -3.6457    0.5962    1.2473 C.2       1 <0>         0.5065
      8 O1         -4.3279    0.7074    0.2508 O.2       1 <0>        -0.5165
      9 C7         -4.3009    0.4346    2.5948 C.3       1 <0>        -0.0031
     10 H1         -4.0024    1.2570    3.2449 H         1 <0>         0.1621
     11 C8         -3.8642   -0.8926    3.2183 C.3       1 <0>        -0.2001
     12 N2         -5.7610    0.4429    2.4336 N.4       1 <0>        -0.4866
     13 C9         -6.3853    0.9731    3.6530 C.3       1 <0>         0.0691
     14 C10        -7.9053    0.9949    3.4797 C.3       1 <0>        -0.1324
     15 C11        -8.4100   -0.4268    3.2251 C.3       1 <0>        -0.1374
     16 C12        -8.0450   -1.3181    4.4139 C.3       1 <0>        -0.1279
     17 C13        -6.5250   -1.3399    4.5872 C.3       1 <0>        -0.1055
     18 H2         -6.0617   -1.7333    3.6824 H         1 <0>         0.0677
     19 C14        -6.0203    0.0819    4.8418 C.3       1 <0>        -0.1460
     20 C15        -6.1600   -2.2312    5.7761 C.3       1 <0>        -0.1532
     21 C16        -5.8806    2.3949    3.9075 C.3       1 <0>         0.0568
     22 O2         -6.0960    3.1927    2.7417 O.3       1 <0>        -0.5741
     23 H3          0.5978    3.2242    0.7096 H         1 <0>         0.0644
     24 H4         -0.9710    3.4100   -0.1106 H         1 <0>         0.0583
     25 H5         -0.9038    2.7601    1.5451 H         1 <0>         0.0493
     26 H6          0.2379    1.4119   -0.9440 H         1 <0>         0.0893
     27 H7          0.3051    0.7619    0.7117 H         1 <0>         0.0728
     28 H8         -2.2691    1.4358   -0.7811 H         1 <0>         0.0984
     29 H9         -0.9934   -0.4892   -1.7707 H         1 <0>         0.0824
     30 H10        -1.0177   -1.2804   -0.1764 H         1 <0>         0.0679
     31 H11        -2.8599   -2.1140   -1.6118 H         1 <0>         0.0543
     32 H12        -3.4970   -1.2436   -0.1959 H         1 <0>         0.0437
     33 H13        -3.4727   -0.4524   -1.7902 H         1 <0>         0.0626
     34 H14        -1.7560    0.5283    1.9467 H         1 <0>         0.4068
     35 H15        -4.2608   -1.7190    2.6286 H         1 <0>         0.0909
     36 H16        -2.7756   -0.9464    3.2331 H         1 <0>         0.1089
     37 H17        -4.2450   -0.9580    4.2375 H         1 <0>         0.1134
     38 H18        -6.0093    1.0254    1.6480 H         1 <0>         0.4406
     39 H19        -8.3685    1.3884    4.3845 H         1 <0>         0.1126
     40 H20        -8.1653    1.6299    2.6327 H         1 <0>         0.0980
     41 H21        -9.4929   -0.4113    3.1016 H         1 <0>         0.0959
     42 H22        -7.9467   -0.8203    2.3203 H         1 <0>         0.0571
     43 H23        -8.5082   -0.9247    5.3187 H         1 <0>         0.0815
     44 H24        -8.4045   -2.3310    4.2326 H         1 <0>         0.0826
     45 H25        -4.9374    0.0663    4.9653 H         1 <0>         0.0999
     46 H26        -6.4835    0.4753    5.7466 H         1 <0>         0.1167
     47 H27        -6.5195   -3.2440    5.5947 H         1 <0>         0.0698
     48 H28        -5.0771   -2.2467    5.8995 H         1 <0>         0.0620
     49 H29        -6.6232   -1.8377    6.6809 H         1 <0>         0.0676
     50 H30        -6.4220    2.8274    4.7489 H         1 <0>         0.0977
     51 H31        -4.8153    2.3667    4.1368 H         1 <0>         0.0698
     52 H32        -5.7310    4.0860    2.8035 H         1 <0>         0.4092
     53 H33        -6.0867   -0.4981    2.2708 H         1 <0>         0.4255
@<TRIPOS>BOND
     1    1    2 1
     2    1   23 1
     3    1   24 1
     4    1   25 1
     5    2    3 1
     6    2   26 1
     7    2   27 1
     8    3    4 1
     9    3    6 1
    10    3   28 1
    11    4    5 1
    12    4   29 1
    13    4   30 1
    14    5   31 1
    15    5   32 1
    16    5   33 1
    17    6    7 am
    18    6   34 1
    19    7    8 2
    20    7    9 1
    21    9   10 1
    22    9   11 1
    23    9   12 1
    24   11   35 1
    25   11   36 1
    26   11   37 1
    27   12   13 1
    28   12   38 1
    29   12   53 1
    30   13   19 1
    31   13   14 1
    32   13   21 1
    33   14   15 1
    34   14   39 1
    35   14   40 1
    36   15   16 1
    37   15   41 1
    38   15   42 1
    39   16   17 1
    40   16   43 1
    41   16   44 1
    42   17   18 1
    43   17   19 1
    44   17   20 1
    45   19   45 1
    46   19   46 1
    47   20   47 1
    48   20   48 1
    49   20   49 1
    50   21   22 1
    51   21   50 1
    52   21   51 1
    53   22   52 1
@<TRIPOS>MOLECULE
ZINC62526627
   51    51     0     0     0
SMALL
USER_CHARGES

@<TRIPOS>ATOM
      1 C1         -0.5322    1.8990    0.5858 C.3       1 <0>        -0.1549
      2 C2         -0.3122    0.3869    0.5078 C.3       1 <0>        -0.1206
      3 C3         -1.6598   -0.3161    0.3327 C.3       1 <0>         0.0522
      4 N1         -1.4485   -1.7679    0.2578 N.3       1 <0>        -0.6702
      5 C4         -2.7237   -2.4775    0.0892 C.3       1 <0>         0.0698
      6 H1         -3.5053   -1.9563    0.6419 H         1 <0>         0.1162
      7 C5         -2.5874   -3.9051    0.6224 C.3       1 <0>        -0.1340
      8 C6         -2.3433   -3.8644    2.1322 C.3       1 <0>        -0.0029
      9 N2         -2.2125   -5.2351    2.6441 N.4       1 <0>        -0.3877
     10 C7         -3.4877   -5.9446    2.4756 C.3       1 <0>        -0.0580
     11 C8         -1.8598   -5.1939    4.0696 C.3       1 <0>        -0.0064
     12 C9         -1.5831   -6.6138    4.5678 C.3       1 <0>        -0.1136
     13 C10        -1.3428   -6.5864    6.0786 C.3       1 <0>        -0.1114
     14 C11        -1.0661   -8.0063    6.5768 C.3       1 <0>        -0.1222
     15 C12         0.1740   -8.5611    5.8731 C.3       1 <0>        -0.1268
     16 C13        -0.0664   -8.5885    4.3623 C.3       1 <0>        -0.1202
     17 C14        -0.3430   -7.1686    3.8641 C.3       1 <0>        -0.1283
     18 C15        -3.0855   -2.5198   -1.3731 C.2       1 <0>         0.4859
     19 O1         -2.3532   -2.0092   -2.1940 O.2       1 <0>        -0.5253
     20 N3         -4.2229   -3.1251   -1.7687 N.am      1 <0>        -0.8507
     21 H2          0.4278    2.3999    0.7106 H         1 <0>         0.0618
     22 H3         -1.0059    2.2451   -0.3328 H         1 <0>         0.0560
     23 H4         -1.1752    2.1292    1.4353 H         1 <0>         0.0557
     24 H5          0.3308    0.1567   -0.3417 H         1 <0>         0.0644
     25 H6          0.1616    0.0408    1.4264 H         1 <0>         0.0694
     26 H7         -2.3028   -0.0859    1.1822 H         1 <0>         0.0742
     27 H8         -2.1335    0.0300   -0.5859 H         1 <0>         0.0438
     28 H9         -0.8040   -2.0018   -0.4825 H         1 <0>         0.3602
     29 H10        -3.5037   -4.4586    0.4172 H         1 <0>         0.0921
     30 H11        -1.7479   -4.3975    0.1317 H         1 <0>         0.0954
     31 H12        -1.4270   -3.3109    2.3374 H         1 <0>         0.1460
     32 H13        -3.1829   -3.3720    2.6229 H         1 <0>         0.1296
     33 H14        -3.3669   -6.9853    2.7762 H         1 <0>         0.1245
     34 H15        -4.2503   -5.4734    3.0956 H         1 <0>         0.1245
     35 H16        -3.7919   -5.9015    1.4298 H         1 <0>         0.1232
     36 H17        -0.9688   -4.5809    4.2058 H         1 <0>         0.1322
     37 H18        -2.6861   -4.7646    4.6361 H         1 <0>         0.1310
     38 H19        -2.4407   -7.2495    4.3478 H         1 <0>         0.0940
     39 H20        -0.4852   -5.9506    6.2986 H         1 <0>         0.0745
     40 H21        -2.2262   -6.1911    6.5799 H         1 <0>         0.0733
     41 H22        -0.8949   -7.9867    7.6531 H         1 <0>         0.0740
     42 H23        -1.9237   -8.6421    6.3568 H         1 <0>         0.0661
     43 H24         1.0316   -7.9253    6.0931 H         1 <0>         0.0668
     44 H25         0.3711   -9.5727    6.2280 H         1 <0>         0.0710
     45 H26         0.8171   -8.9838    3.8610 H         1 <0>         0.0728
     46 H27        -0.9240   -9.2243    4.1423 H         1 <0>         0.0663
     47 H28        -0.5143   -7.1881    2.7878 H         1 <0>         0.0550
     48 H29         0.5146   -6.5328    4.0841 H         1 <0>         0.0795
     49 H30        -4.8086   -3.5334   -1.1121 H         1 <0>         0.4003
     50 H31        -4.4558   -3.1523   -2.7099 H         1 <0>         0.4090
     51 H32        -1.4889   -5.7176    2.1325 H         1 <0>         0.4227
@<TRIPOS>BOND
     1    1    2 1
     2    1   21 1
     3    1   22 1
     4    1   23 1
     5    2    3 1
     6    2   24 1
     7    2   25 1
     8    3    4 1
     9    3   26 1
    10    3   27 1
    11    4    5 1
    12    4   28 1
    13    5    6 1
    14    5    7 1
    15    5   18 1
    16    7    8 1
    17    7   29 1
    18    7   30 1
    19    8    9 1
    20    8   31 1
    21    8   32 1
    22    9   10 1
    23    9   11 1
    24    9   51 1
    25   10   33 1
    26   10   34 1
    27   10   35 1
    28   11   12 1
    29   11   36 1
    30   11   37 1
    31   12   17 1
    32   12   13 1
    33   12   38 1
    34   13   14 1
    35   13   39 1
    36   13   40 1
    37   14   15 1
    38   14   41 1
    39   14   42 1
    40   15   16 1
    41   15   43 1
    42   15   44 1
    43   16   17 1
    44   16   45 1
    45   16   46 1
    46   17   47 1
    47   17   48 1
    48   18   19 2
    49   18   20 am
    50   20   49 1
    51   20   50 1
@<TRIPOS>MOLECULE
ZINC08568972
   30    30     0     0     0
SMALL
USER_CHARGES
N-[(butanoylamino)carbamothioyl]cyclopropanecarboxamide
@<TRIPOS>ATOM
      1 C1         -6.2104    7.4203    0.0718 C.3       1 <0>        -0.1545
      2 C2         -6.1897    5.8904    0.0634 C.3       1 <0>        -0.1117
      3 C3         -4.7404    5.4001    0.0539 C.3       1 <0>        -0.1297
      4 C4         -4.7200    3.8933    0.0456 C.2       1 <0>         0.5182
      5 O1         -5.7620    3.2726    0.0472 O.2       1 <0>        -0.5148
      6 N1         -3.5437    3.2353    0.0364 N.am      1 <0>        -0.5556
      7 N2         -3.5247    1.8345    0.0287 N.pl3     1 <0>        -0.4596
      8 C5         -2.3485    1.1765    0.0196 C.2       1 <0>         0.5159
      9 S1         -2.3253   -0.5353    0.0102 S.2       1 <0>        -0.4664
     10 N3         -1.1906    1.8662    0.0178 N.am      1 <0>        -0.6434
     11 C6         -0.0144    1.2082    0.0087 C.2       1 <0>         0.5184
     12 O2          0.0021   -0.0041    0.0020 O.2       1 <0>        -0.4027
     13 C7          1.2803    1.9794    0.0005 C.3       1 <0>        -0.2010
     14 C8          2.1269    1.9251   -1.2728 C.3       1 <0>        -0.1498
     15 C9          2.5817    1.1750   -0.0183 C.3       1 <0>        -0.1394
     16 H1         -5.6974    7.7857    0.9614 H         1 <0>         0.0568
     17 H2         -5.7058    7.7954   -0.8185 H         1 <0>         0.0569
     18 H3         -7.2429    7.7696    0.0786 H         1 <0>         0.0625
     19 H4         -6.7027    5.5250   -0.8261 H         1 <0>         0.0734
     20 H5         -6.6943    5.5153    0.9538 H         1 <0>         0.0734
     21 H6         -4.2273    5.7655    0.9434 H         1 <0>         0.1039
     22 H7         -4.2358    5.7752   -0.8365 H         1 <0>         0.1040
     23 H8         -2.7104    3.7317    0.0352 H         1 <0>         0.4195
     24 H9         -4.3581    1.3381    0.0300 H         1 <0>         0.4577
     25 H10        -1.2037    2.8361    0.0232 H         1 <0>         0.4036
     26 H11         1.2744    2.9140    0.5614 H         1 <0>         0.1284
     27 H12         1.7474    1.3315   -2.1046 H         1 <0>         0.1035
     28 H13         2.6783    2.8238   -1.5494 H         1 <0>         0.1098
     29 H14         3.4320    1.5805    0.5299 H         1 <0>         0.1097
     30 H15         2.5013    0.0880   -0.0244 H         1 <0>         0.1132
@<TRIPOS>BOND
     1    1    2 1
     2    1   16 1
     3    1   17 1
     4    1   18 1
     5    2    3 1
     6    2   19 1
     7    2   20 1
     8    3    4 1
     9    3   21 1
    10    3   22 1
    11    4    5 2
    12    4    6 am
    13    6    7 1
    14    6   23 1
    15    7    8 1
    16    7   24 1
    17    8    9 2
    18    8   10 1
    19   10   11 am
    20   10   25 1
    21   11   12 2
    22   11   13 1
    23   13   15 1
    24   13   14 1
    25   13   26 1
    26   14   15 1
    27   14   27 1
    28   14   28 1
    29   15   29 1
    30   15   30 1
@<TRIPOS>MOLECULE
ZINC37417590
   36    36     0     0     0
SMALL
USER_CHARGES

@<TRIPOS>ATOM
      1 C1          0.1183    1.4066    0.2284 C.3       1 <0>        -0.1758
      2 C2          0.0252   -0.1097    0.0473 C.3       1 <0>        -0.1415
      3 C3          0.6058   -0.4973   -1.3142 C.3       1 <0>         0.0801
      4 H1          0.1030    0.0690   -2.0981 H         1 <0>         0.1444
      5 C4          0.3980   -1.9716   -1.5476 C.ar      1 <0>        -0.1463
      6 C5          1.2459   -2.8901   -0.9567 C.ar      1 <0>        -0.1011
      7 C6          1.0579   -4.2420   -1.1695 C.ar      1 <0>        -0.1325
      8 C7          0.0170   -4.6779   -1.9764 C.ar      1 <0>         0.1351
      9 C8         -0.8327   -3.7543   -2.5677 C.ar      1 <0>        -0.1363
     10 C9         -0.6436   -2.4036   -2.3477 C.ar      1 <0>        -0.0713
     11 O1         -0.1698   -6.0073   -2.1876 O.3       1 <0>        -0.4948
     12 N1          2.0433   -0.1957   -1.3374 N.4       1 <0>        -0.5072
     13 C10         2.5750   -0.4488   -2.6832 C.3       1 <0>        -0.0137
     14 C11         4.0414   -0.0160   -2.7419 C.3       1 <0>        -0.1194
     15 C12         4.5952   -0.2796   -4.1435 C.3       1 <0>        -0.1830
     16 C13         6.0395    0.1467   -4.2013 C.2       1 <0>         0.4883
     17 O2          6.5761    0.6177   -3.2131 O.co2     1 <0>        -0.6966
     18 O3          6.6714    0.0206   -5.2364 O.co2     1 <0>        -0.6871
     19 H2          1.1662    1.7039    0.2700 H         1 <0>         0.0570
     20 H3         -0.3672    1.9034   -0.6116 H         1 <0>         0.0716
     21 H4         -0.3777    1.6929    1.1559 H         1 <0>         0.0825
     22 H5          0.5895   -0.6053    0.8373 H         1 <0>         0.0878
     23 H6         -1.0189   -0.4183    0.0982 H         1 <0>         0.1095
     24 H7          2.0562   -2.5503   -0.3286 H         1 <0>         0.1256
     25 H8          1.7209   -4.9591   -0.7083 H         1 <0>         0.1412
     26 H9         -1.6437   -4.0911   -3.1964 H         1 <0>         0.1411
     27 H10        -1.3074   -1.6844   -2.8042 H         1 <0>         0.1377
     28 H11        -0.7548   -6.4295   -1.5436 H         1 <0>         0.4012
     29 H12         2.1875    0.7732   -1.0955 H         1 <0>         0.4278
     30 H13         2.5009   -1.5126   -2.9090 H         1 <0>         0.1260
     31 H14         1.9991    0.1188   -3.4141 H         1 <0>         0.1264
     32 H15         4.1155    1.0478   -2.5161 H         1 <0>         0.0842
     33 H16         4.6173   -0.5836   -2.0109 H         1 <0>         0.0835
     34 H17         4.5211   -1.3434   -4.3693 H         1 <0>         0.0671
     35 H18         4.0193    0.2880   -4.8745 H         1 <0>         0.0673
     36 H19         2.5211   -0.7835   -0.6709 H         1 <0>         0.4214
@<TRIPOS>BOND
     1    1    2 1
     2    1   19 1
     3    1   20 1
     4    1   21 1
     5    2    3 1
     6    2   22 1
     7    2   23 1
     8    3    4 1
     9    3    5 1
    10    3   12 1
    11    5   10 ar
    12    5    6 ar
    13    6    7 ar
    14    6   24 1
    15    7    8 ar
    16    7   25 1
    17    8    9 ar
    18    8   11 1
    19    9   10 ar
    20    9   26 1
    21   10   27 1
    22   11   28 1
    23   12   13 1
    24   12   29 1
    25   12   36 1
    26   13   14 1
    27   13   30 1
    28   13   31 1
    29   14   15 1
    30   14   32 1
    31   14   33 1
    32   15   16 1
    33   15   34 1
    34   15   35 1
    35   16   17 2
    36   16   18 1
@<TRIPOS>MOLECULE
ZINC44859085
   41    40     0     0     0
SMALL
USER_CHARGES

@<TRIPOS>ATOM
      1 C1          1.0294   -0.4944    1.7014 C.3       1 <0>        -0.1534
      2 C2          0.3299   -1.2560    0.5738 C.3       1 <0>        -0.1111
      3 C3          0.3249   -0.3992   -0.6938 C.3       1 <0>        -0.0961
      4 H1         -0.1239    0.5699   -0.4755 H         1 <0>         0.1177
      5 C4         -0.4750   -1.0931   -1.7660 C.2       1 <0>         0.3169
      6 S1          0.2734   -1.8178   -2.9790 S.2       1 <0>        -0.4248
      7 N1         -1.8213   -1.1029   -1.7025 N.pl3     1 <0>        -0.7817
      8 C5          1.7402   -0.2011   -1.1718 C.2       1 <0>         0.5454
      9 O1          2.4467   -1.1624   -1.3900 O.2       1 <0>        -0.4904
     10 N2          2.2209    1.0444   -1.3569 N.am      1 <0>        -0.5994
     11 C6          1.4063    2.2058   -0.9912 C.3       1 <0>         0.1046
     12 C7          0.5543    2.6287   -2.1896 C.3       1 <0>         0.0443
     13 O2         -0.3836    1.5950   -2.4958 O.3       1 <0>        -0.5685
     14 C8          3.5581    1.2368   -1.9236 C.3       1 <0>         0.1407
     15 C9          3.4511    2.0393   -3.2219 C.3       1 <0>        -0.1346
     16 C10         2.6833    1.2235   -4.2639 C.3       1 <0>        -0.1540
     17 C11         4.4310    1.9980   -0.9239 C.3       1 <0>        -0.1342
     18 C12         4.6101    1.1564    0.3411 C.3       1 <0>        -0.1491
     19 H2          2.0801   -0.3536    1.4475 H         1 <0>         0.0601
     20 H3          0.5540    0.4775    1.8329 H         1 <0>         0.0555
     21 H4          0.9527   -1.0647    2.6271 H         1 <0>         0.0655
     22 H5          0.8614   -2.1878    0.3804 H         1 <0>         0.0839
     23 H6         -0.6964   -1.4772    0.8669 H         1 <0>         0.0704
     24 H7         -2.2753   -0.6633   -0.9667 H         1 <0>         0.3933
     25 H8         -2.3361   -1.5496   -2.3927 H         1 <0>         0.4166
     26 H9          0.7554    1.9448   -0.1567 H         1 <0>         0.0823
     27 H10         2.0580    3.0295   -0.6999 H         1 <0>         0.0962
     28 H11         0.0177    3.5463   -1.9482 H         1 <0>         0.0518
     29 H12         1.1993    2.8010   -3.0512 H         1 <0>         0.0647
     30 H13        -0.9586    1.7955   -3.2471 H         1 <0>         0.3787
     31 H14         4.0073    0.2659   -2.1326 H         1 <0>         0.1048
     32 H15         2.9222    2.9727   -3.0295 H         1 <0>         0.0625
     33 H16         4.4508    2.2587   -3.5968 H         1 <0>         0.0713
     34 H17         3.2123    0.2900   -4.4563 H         1 <0>         0.0569
     35 H18         1.6836    1.0040   -3.8890 H         1 <0>         0.0678
     36 H19         2.6071    1.7952   -5.1888 H         1 <0>         0.0468
     37 H20         5.4058    2.1958   -1.3697 H         1 <0>         0.0743
     38 H21         3.9506    2.9421   -0.6672 H         1 <0>         0.0625
     39 H22         5.2320    1.6987    1.0533 H         1 <0>         0.0527
     40 H23         3.6353    0.9585    0.7869 H         1 <0>         0.0522
     41 H24         5.0906    0.2122    0.0845 H         1 <0>         0.0570
@<TRIPOS>BOND
     1    1    2 1
     2    1   19 1
     3    1   20 1
     4    1   21 1
     5    2    3 1
     6    2   22 1
     7    2   23 1
     8    3    4 1
     9    3    5 1
    10    3    8 1
    11    5    6 2
    12    5    7 1
    13    7   24 1
    14    7   25 1
    15    8    9 2
    16    8   10 am
    17   10   11 1
    18   10   14 1
    19   11   12 1
    20   11   26 1
    21   11   27 1
    22   12   13 1
    23   12   28 1
    24   12   29 1
    25   13   30 1
    26   14   15 1
    27   14   17 1
    28   14   31 1
    29   15   16 1
    30   15   32 1
    31   15   33 1
    32   16   34 1
    33   16   35 1
    34   16   36 1
    35   17   18 1
    36   17   37 1
    37   17   38 1
    38   18   39 1
    39   18   40 1
    40   18   41 1
@<TRIPOS>MOLECULE
ZINC49989706
   46    46     0     0     0
SMALL
USER_CHARGES

@<TRIPOS>ATOM
      1 C1         -0.0184    1.5028    0.0103 C.3       1 <0>        -0.1166
      2 C2          0.0021   -0.0041    0.0020 C.ar      1 <0>        -0.0358
      3 C3          0.0057   -0.6881   -1.1998 C.ar      1 <0>        -0.1778
      4 C4          0.0240   -2.0708   -1.2119 C.ar      1 <0>        -0.0353
      5 C5          0.0391   -2.7732   -0.0230 C.ar      1 <0>        -0.2035
      6 C6          0.0360   -2.0892    1.1861 C.ar      1 <0>         0.2199
      7 C7          0.0229   -0.7002    1.1946 C.ar      1 <0>        -0.2031
      8 N1          0.0513   -2.7964    2.3904 N.pl3     1 <0>        -0.6342
      9 C8          0.0706   -4.2613    2.3795 C.3       1 <0>         0.0931
     10 C9          0.0479   -2.0734    3.6646 C.3       1 <0>         0.1250
     11 C10        -1.3956   -1.8408    4.1152 C.3       1 <0>        -0.1398
     12 C11        -1.3991   -1.0857    5.4459 C.3       1 <0>        -0.1332
     13 C12        -2.8426   -0.8531    5.8965 C.3       1 <0>        -0.1175
     14 C13        -2.8461   -0.0980    7.2272 C.3       1 <0>        -0.0214
     15 C14        -2.2559    1.2986    7.0226 C.3       1 <0>        -0.1541
     16 C15        -4.2608    0.0234    7.7321 C.2       1 <0>         0.4971
     17 O1         -4.5667   -0.4572    8.8100 O.co2     1 <0>        -0.6745
     18 O2         -5.0994    0.6024    7.0628 O.co2     1 <0>        -0.6312
     19 N2         -2.0370   -0.8324    8.2091 N.4       1 <0>        -0.6118
     20 C16         0.0269   -2.8120   -2.5241 C.3       1 <0>        -0.1168
     21 H1          1.0042    1.8801    0.0026 H         1 <0>         0.0707
     22 H2         -0.5455    1.8639   -0.8728 H         1 <0>         0.0677
     23 H3         -0.5286    1.8543    0.9071 H         1 <0>         0.0650
     24 H4         -0.0061   -0.1413   -2.1310 H         1 <0>         0.1174
     25 H5          0.0530   -3.8531   -0.0331 H         1 <0>         0.1203
     26 H6          0.0244   -0.1652    2.1328 H         1 <0>         0.1190
     27 H7          1.1030   -4.6109    2.3717 H         1 <0>         0.0479
     28 H8         -0.4339   -4.6380    3.2692 H         1 <0>         0.0645
     29 H9         -0.4428   -4.6248    1.4894 H         1 <0>         0.0691
     30 H10         0.5733   -2.6612    4.4173 H         1 <0>         0.0712
     31 H11         0.5485   -1.1133    3.5388 H         1 <0>         0.0762
     32 H12        -1.9210   -1.2530    3.3625 H         1 <0>         0.0752
     33 H13        -1.8961   -2.8009    4.2409 H         1 <0>         0.0682
     34 H14        -0.8737   -1.6736    6.1986 H         1 <0>         0.0531
     35 H15        -0.8985   -0.1256    5.3202 H         1 <0>         0.0784
     36 H16        -3.3679   -0.2653    5.1438 H         1 <0>         0.1093
     37 H17        -3.3431   -1.8132    6.0223 H         1 <0>         0.0801
     38 H18        -2.8562    1.8436    6.2940 H         1 <0>         0.1035
     39 H19        -2.2584    1.8366    7.9706 H         1 <0>         0.0714
     40 H20        -1.2327    1.2108    6.6574 H         1 <0>         0.0679
     41 H21        -1.0899   -0.9138    7.8710 H         1 <0>         0.4099
     42 H22        -2.0393   -0.3345    9.0866 H         1 <0>         0.4309
     43 H23         1.0551   -2.9771   -2.8458 H         1 <0>         0.0713
     44 H24        -0.4736   -3.7723   -2.4000 H         1 <0>         0.0651
     45 H25        -0.4988   -2.2227   -3.2754 H         1 <0>         0.0675
     46 H26        -2.4263   -1.7535    8.3440 H         1 <0>         0.4306
@<TRIPOS>BOND
     1    1    2 1
     2    1   21 1
     3    1   22 1
     4    1   23 1
     5    2    7 ar
     6    2    3 ar
     7    3    4 ar
     8    3   24 1
     9    4    5 ar
    10    4   20 1
    11    5    6 ar
    12    5   25 1
    13    6    7 ar
    14    6    8 1
    15    7   26 1
    16    8    9 1
    17    8   10 1
    18    9   27 1
    19    9   28 1
    20    9   29 1
    21   10   11 1
    22   10   30 1
    23   10   31 1
    24   11   12 1
    25   11   32 1
    26   11   33 1
    27   12   13 1
    28   12   34 1
    29   12   35 1
    30   13   14 1
    31   13   36 1
    32   13   37 1
    33   14   15 1
    34   14   16 1
    35   14   19 1
    36   15   38 1
    37   15   39 1
    38   15   40 1
    39   16   17 2
    40   16   18 1
    41   19   41 1
    42   19   42 1
    43   19   46 1
    44   20   43 1
    45   20   44 1
    46   20   45 1
@<TRIPOS>MOLECULE
ZINC57896996
   37    38     0     0     0
SMALL
USER_CHARGES

@<TRIPOS>ATOM
      1 C1         -0.0691    1.3455    0.4749 C.2       1 <0>        -0.1704
      2 C2         -0.0726    0.0635    0.7443 C.2       1 <0>        -0.1577
      3 C3          1.1687   -0.7587    0.5116 C.3       1 <0>         0.0910
      4 O1          1.3948   -1.6091    1.6376 O.3       1 <0>        -0.3163
      5 C4          2.4821   -2.4219    1.5880 C.ar      1 <0>         0.0702
      6 C5          3.3163   -2.3951    0.4790 C.ar      1 <0>        -0.1786
      7 C6          4.4208   -3.2170    0.4227 C.ar      1 <0>        -0.1108
      8 C7          4.7047   -4.0819    1.4857 C.ar      1 <0>        -0.0705
      9 C8          3.8642   -4.1090    2.6043 C.ar      1 <0>        -0.0812
     10 C9          2.7607   -3.2776    2.6552 C.ar      1 <0>         0.1840
     11 N1          1.9199   -3.2979    3.7741 N.pl3     1 <0>        -0.8765
     12 C10         5.8823   -4.9598    1.4271 C.2       1 <0>        -0.0031
     13 C11         5.7870   -6.2445    1.8302 C.2       1 <0>        -0.2281
     14 C12         4.4740   -6.8336    2.0913 C.2       1 <0>         0.5407
     15 O2          3.4633   -6.2108    1.8228 O.2       1 <0>        -0.5172
     16 N2          4.3833   -8.0660    2.6293 N.am      1 <0>        -0.7019
     17 C13         3.0681   -8.6560    2.8909 C.3       1 <0>         0.0810
     18 C14         2.8694   -9.3751    4.2267 C.3       1 <0>        -0.1937
     19 C15         2.9741  -10.1826    2.9314 C.3       1 <0>        -0.1904
     20 H1          0.8233    1.8131    0.0860 H         1 <0>         0.0998
     21 H2         -0.9601    1.9339    0.6375 H         1 <0>         0.1080
     22 H3         -0.9650   -0.4042    1.1333 H         1 <0>         0.1189
     23 H4          1.0388   -1.3675   -0.3832 H         1 <0>         0.0704
     24 H5          2.0240   -0.0960    0.3792 H         1 <0>         0.0659
     25 H6          3.0989   -1.7283   -0.3423 H         1 <0>         0.1254
     26 H7          5.0673   -3.1940   -0.4421 H         1 <0>         0.1212
     27 H8          4.0789   -4.7750    3.4270 H         1 <0>         0.1173
     28 H9          1.1437   -2.7172    3.8081 H         1 <0>         0.4009
     29 H10         2.1136   -3.8925    4.5156 H         1 <0>         0.3953
     30 H11         6.8237   -4.5770    1.0616 H         1 <0>         0.1373
     31 H12         6.6803   -6.8375    1.9599 H         1 <0>         0.1323
     32 H13         5.1888   -8.5623    2.8433 H         1 <0>         0.4004
     33 H14         2.2181   -8.1102    2.4814 H         1 <0>         0.1374
     34 H15         3.7172   -9.4091    4.9109 H         1 <0>         0.0965
     35 H16         1.8886   -9.3022    4.6965 H         1 <0>         0.1019
     36 H17         2.0622  -10.6410    2.5490 H         1 <0>         0.1033
     37 H18         3.8908  -10.7479    2.7635 H         1 <0>         0.0972
@<TRIPOS>BOND
     1    1    2 2
     2    1   20 1
     3    1   21 1
     4    2    3 1
     5    2   22 1
     6    3    4 1
     7    3   23 1
     8    3   24 1
     9    4    5 1
    10    5   10 ar
    11    5    6 ar
    12    6    7 ar
    13    6   25 1
    14    7    8 ar
    15    7   26 1
    16    8    9 ar
    17    8   12 1
    18    9   10 ar
    19    9   27 1
    20   10   11 1
    21   11   28 1
    22   11   29 1
    23   12   13 2
    24   12   30 1
    25   13   14 1
    26   13   31 1
    27   14   15 2
    28   14   16 am
    29   16   17 1
    30   16   32 1
    31   17   19 1
    32   17   18 1
    33   17   33 1
    34   18   19 1
    35   18   34 1
    36   18   35 1
    37   19   36 1
    38   19   37 1
@<TRIPOS>MOLECULE
ZINC35721228
   48    48     0     0     0
SMALL
USER_CHARGES

@<TRIPOS>ATOM
      1 C1         -0.9256    2.0882    0.5823 C.3       1 <0>        -0.1857
      2 C2         -0.6706    0.5796    0.5820 C.3       1 <0>        -0.0192
      3 N1         -1.9539   -0.1339    0.5353 N.4       1 <0>        -0.3825
      4 C3         -2.6231    0.1452   -0.7423 C.3       1 <0>        -0.0125
      5 C4         -4.0155   -0.4889   -0.7378 C.3       1 <0>        -0.1896
      6 C5         -1.7158   -1.5782    0.6582 C.3       1 <0>        -0.0240
      7 C6         -1.1330   -1.8834    2.0396 C.3       1 <0>         0.0987
      8 N2         -0.8956   -3.3238    2.1621 N.am      1 <0>        -0.7481
      9 C7         -0.3817   -3.8275    3.3017 C.2       1 <0>         0.5062
     10 O1         -0.1159   -3.0883    4.2257 O.2       1 <0>        -0.4689
     11 C8         -0.1375   -5.3092    3.4278 C.3       1 <0>        -0.1090
     12 C9          0.4253   -5.6170    4.8168 C.3       1 <0>        -0.1205
     13 C10         0.5515   -7.1317    4.9918 C.3       1 <0>        -0.0884
     14 C11         1.1143   -7.4395    6.3809 C.3       1 <0>        -0.1163
     15 C12         2.4930   -6.7926    6.5273 C.3       1 <0>        -0.1143
     16 C13         2.3668   -5.2779    6.3523 C.3       1 <0>        -0.1250
     17 C14         1.8041   -4.9701    4.9633 C.3       1 <0>        -0.0832
     18 C15        -0.5027   -5.0654    5.8683 C.2       1 <0>         0.5157
     19 O2         -1.6141   -5.5453    6.0129 O.co2     1 <0>        -0.7122
     20 O3         -0.1420   -4.1392    6.5744 O.co2     1 <0>        -0.6696
     21 H1          0.0168    2.6160    0.7289 H         1 <0>         0.1057
     22 H2         -1.3626    2.3830   -0.3718 H         1 <0>         0.0786
     23 H3         -1.6127    2.3404    1.3900 H         1 <0>         0.0807
     24 H4         -0.0742    0.3121   -0.2902 H         1 <0>         0.1297
     25 H5         -0.1332    0.3018    1.4887 H         1 <0>         0.1358
     26 H6         -2.7151    1.2229   -0.8764 H         1 <0>         0.1320
     27 H7         -2.0357   -0.2739   -1.5592 H         1 <0>         0.1285
     28 H8         -4.5644   -0.1539    0.1423 H         1 <0>         0.0809
     29 H9         -4.5537   -0.1900   -1.6372 H         1 <0>         0.1045
     30 H10        -3.9203   -1.5745   -0.7152 H         1 <0>         0.0815
     31 H11        -2.6573   -2.1134    0.5348 H         1 <0>         0.1377
     32 H12        -1.0128   -1.8974   -0.1113 H         1 <0>         0.1345
     33 H13        -0.1915   -1.3481    2.1630 H         1 <0>         0.0824
     34 H14        -1.8360   -1.5642    2.8091 H         1 <0>         0.0840
     35 H15        -1.1082   -3.9150    1.4231 H         1 <0>         0.3996
     36 H16        -1.0764   -5.8453    3.2892 H         1 <0>         0.0922
     37 H17         0.5771   -5.6256    2.6679 H         1 <0>         0.0788
     38 H18        -0.4308   -7.5926    4.8875 H         1 <0>         0.0615
     39 H19         1.2227   -7.5307    4.2313 H         1 <0>         0.0428
     40 H20         0.4431   -7.0405    7.1414 H         1 <0>         0.0682
     41 H21         1.2042   -8.5186    6.5056 H         1 <0>         0.0502
     42 H22         2.8940   -7.0118    7.5169 H         1 <0>         0.0509
     43 H23         3.1642   -7.1915    5.7668 H         1 <0>         0.0474
     44 H24         1.6957   -4.8789    7.1129 H         1 <0>         0.0963
     45 H25         3.3491   -4.8170    6.4567 H         1 <0>         0.0402
     46 H26         2.4752   -5.3691    4.2027 H         1 <0>         0.0266
     47 H27         1.7142   -3.8910    4.8386 H         1 <0>         0.0714
     48 H28        -2.5391    0.1765    1.2964 H         1 <0>         0.4255
@<TRIPOS>BOND
     1    1    2 1
     2    1   21 1
     3    1   22 1
     4    1   23 1
     5    2    3 1
     6    2   24 1
     7    2   25 1
     8    3    4 1
     9    3    6 1
    10    3   48 1
    11    4    5 1
    12    4   26 1
    13    4   27 1
    14    5   28 1
    15    5   29 1
    16    5   30 1
    17    6    7 1
    18    6   31 1
    19    6   32 1
    20    7    8 1
    21    7   33 1
    22    7   34 1
    23    8    9 am
    24    8   35 1
    25    9   10 2
    26    9   11 1
    27   11   12 1
    28   11   36 1
    29   11   37 1
    30   12   17 1
    31   12   13 1
    32   12   18 1
    33   13   14 1
    34   13   38 1
    35   13   39 1
    36   14   15 1
    37   14   40 1
    38   14   41 1
    39   15   16 1
    40   15   42 1
    41   15   43 1
    42   16   17 1
    43   16   44 1
    44   16   45 1
    45   17   46 1
    46   17   47 1
    47   18   19 2
    48   18   20 1
@<TRIPOS>MOLECULE
ZINC42221760
   38    38     0     0     0
SMALL
USER_CHARGES

@<TRIPOS>ATOM
      1 C1         -0.0187    1.5258    0.0104 C.3       1 <0>        -0.1608
      2 C2          0.0021   -0.0041    0.0020 C.3       1 <0>         0.1465
      3 H1          0.5123   -0.3556   -0.8948 H         1 <0>         0.1016
      4 C3          0.7421   -0.5109    1.2415 C.3       1 <0>         0.0505
      5 O1          0.1431    0.0444    2.4141 O.3       1 <0>        -0.3886
      6 C4          0.7626   -0.3678    3.6341 C.3       1 <0>         0.0305
      7 N1         -1.3723   -0.5112    0.0124 N.am      1 <0>        -0.7190
      8 C5         -2.0508   -0.6427   -1.1446 C.2       1 <0>         0.5104
      9 O2         -1.5236   -0.3413   -2.1944 O.2       1 <0>        -0.5323
     10 C6         -3.4646   -1.1643   -1.1339 C.3       1 <0>         0.1084
     11 N2         -3.9776   -1.2130   -2.5053 N.pl3     1 <0>        -0.7336
     12 C7         -5.2787   -1.6671   -2.7502 C.ar      1 <0>         0.1955
     13 C8         -6.0862   -2.0660   -1.6950 C.ar      1 <0>        -0.1712
     14 C9         -7.3709   -2.5135   -1.9393 C.ar      1 <0>        -0.1054
     15 C10        -7.8543   -2.5649   -3.2336 C.ar      1 <0>        -0.1397
     16 C11        -7.0551   -2.1689   -4.2904 C.ar      1 <0>        -0.1622
     17 C12        -5.7684   -1.7142   -4.0536 C.ar      1 <0>         0.0567
     18 O3         -4.9830   -1.3194   -5.0915 O.3       1 <0>        -0.3211
     19 C13        -5.5514   -1.3949   -6.4004 C.3       1 <0>         0.0315
     20 H2          1.0039    1.9031    0.0027 H         1 <0>         0.0655
     21 H3         -0.5459    1.8868   -0.8726 H         1 <0>         0.0603
     22 H4         -0.5289    1.8773    0.9072 H         1 <0>         0.0680
     23 H5          0.6803   -1.5984    1.2822 H         1 <0>         0.0579
     24 H6          1.7879   -0.2080    1.1895 H         1 <0>         0.0677
     25 H7          0.2503    0.0965    4.4767 H         1 <0>         0.0886
     26 H8          0.7013   -1.4523    3.7244 H         1 <0>         0.0426
     27 H9          1.8089   -0.0620    3.6317 H         1 <0>         0.0433
     28 H10        -1.7940   -0.7522    0.8520 H         1 <0>         0.4073
     29 H11        -3.4790   -2.1662   -0.7048 H         1 <0>         0.0897
     30 H12        -4.0912   -0.5035   -0.5349 H         1 <0>         0.0905
     31 H13        -3.4155   -0.9306   -3.2437 H         1 <0>         0.4165
     32 H14        -5.7110   -2.0272   -0.6830 H         1 <0>         0.1267
     33 H15        -7.9986   -2.8242   -1.1172 H         1 <0>         0.1231
     34 H16        -8.8586   -2.9156   -3.4199 H         1 <0>         0.1214
     35 H17        -7.4357   -2.2102   -5.3002 H         1 <0>         0.1274
     36 H18        -5.8273   -2.4268   -6.6178 H         1 <0>         0.0536
     37 H19        -6.4389   -0.7638   -6.4481 H         1 <0>         0.0537
     38 H20        -4.8217   -1.0517   -7.1338 H         1 <0>         0.0984
@<TRIPOS>BOND
     1    1    2 1
     2    1   20 1
     3    1   21 1
     4    1   22 1
     5    2    3 1
     6    2    4 1
     7    2    7 1
     8    4    5 1
     9    4   23 1
    10    4   24 1
    11    5    6 1
    12    6   25 1
    13    6   26 1
    14    6   27 1
    15    7    8 am
    16    7   28 1
    17    8    9 2
    18    8   10 1
    19   10   11 1
    20   10   29 1
    21   10   30 1
    22   11   12 1
    23   11   31 1
    24   12   17 ar
    25   12   13 ar
    26   13   14 ar
    27   13   32 1
    28   14   15 ar
    29   14   33 1
    30   15   16 ar
    31   15   34 1
    32   16   17 ar
    33   16   35 1
    34   17   18 1
    35   18   19 1
    36   19   36 1
    37   19   37 1
    38   19   38 1
@<TRIPOS>MOLECULE
ZINC48211395
   41    42     0     0     0
SMALL
USER_CHARGES

@<TRIPOS>ATOM
      1 C1         -0.0187    1.5258    0.0104 C.3       1 <0>        -0.1250
      2 C2          0.0021   -0.0041    0.0020 C.3       1 <0>        -0.1421
      3 H1          0.0748   -0.4678   -0.9817 H         1 <0>         0.1078
      4 C3         -0.8275   -0.7277    1.0646 C.3       1 <0>        -0.1720
      5 C4          0.6996   -0.7075    1.1680 C.3       1 <0>        -0.1698
      6 H2          1.1437   -0.0805    1.9411 H         1 <0>         0.1100
      7 C5          1.4453   -2.0084    0.8640 C.3       1 <0>         0.1698
      8 N1          2.1418   -2.4652    2.0692 N.am      1 <0>        -0.7437
      9 C6          2.8694   -3.5992    2.0382 C.2       1 <0>         0.7038
     10 O1          2.9478   -4.2432    1.0098 O.2       1 <0>        -0.5897
     11 N2          3.5101   -4.0194    3.1470 N.am      1 <0>        -0.7464
     12 C7          4.3009   -5.2521    3.1132 C.3       1 <0>         0.1414
     13 C8          4.9185   -5.4998    4.4909 C.3       1 <0>        -0.1308
     14 C9          5.7445   -6.7872    4.4557 C.3       1 <0>         0.0657
     15 O2          6.3212   -7.0185    5.7425 O.3       1 <0>        -0.3829
     16 C10         7.1170   -8.2030    5.8183 C.3       1 <0>         0.1453
     17 C11         7.6722   -8.3468    7.2119 C.2       1 <0>        -0.0229
     18 C12         7.0833   -8.9998    8.2298 C.2       1 <0>        -0.1829
     19 C13         7.9456   -8.8842    9.3442 C.2       1 <0>        -0.2187
     20 C14         9.0100   -8.1675    8.9406 C.2       1 <0>        -0.0291
     21 O3          8.8417   -7.8496    7.6467 O.3       1 <0>        -0.1719
     22 H3          1.0039    1.9031    0.0027 H         1 <0>         0.0609
     23 H4         -0.5459    1.8868   -0.8726 H         1 <0>         0.0632
     24 H5         -0.5289    1.8773    0.9072 H         1 <0>         0.0567
     25 H6         -1.3881   -0.1139    1.7696 H         1 <0>         0.0966
     26 H7         -1.3003   -1.6677    0.7800 H         1 <0>         0.0970
     27 H8          0.7331   -2.7696    0.5454 H         1 <0>         0.0685
     28 H9          2.1707   -1.8342    0.0693 H         1 <0>         0.0707
     29 H10         2.0792   -1.9514    2.8896 H         1 <0>         0.3971
     30 H11         3.4475   -3.5057    3.9673 H         1 <0>         0.3977
     31 H12         3.6564   -6.0902    2.8479 H         1 <0>         0.0698
     32 H13         5.0940   -5.1548    2.3717 H         1 <0>         0.0698
     33 H14         5.5630   -4.6618    4.7562 H         1 <0>         0.0795
     34 H15         4.1254   -5.5971    5.2324 H         1 <0>         0.0797
     35 H16         5.0999   -7.6253    4.1904 H         1 <0>         0.0579
     36 H17         6.5375   -6.6899    3.7142 H         1 <0>         0.0577
     37 H18         6.5010   -9.0704    5.5813 H         1 <0>         0.0845
     38 H19         7.9386   -8.1350    5.1051 H         1 <0>         0.0696
     39 H20         6.1336   -9.5133    8.2014 H         1 <0>         0.1502
     40 H21         7.7812   -9.2926   10.3304 H         1 <0>         0.1513
     41 H22         9.8580   -7.8970    9.5523 H         1 <0>         0.2057
@<TRIPOS>BOND
     1    1    2 1
     2    1   22 1
     3    1   23 1
     4    1   24 1
     5    2    3 1
     6    2    5 1
     7    2    4 1
     8    4    5 1
     9    4   25 1
    10    4   26 1
    11    5    6 1
    12    5    7 1
    13    7    8 1
    14    7   27 1
    15    7   28 1
    16    8    9 am
    17    8   29 1
    18    9   10 2
    19    9   11 am
    20   11   12 1
    21   11   30 1
    22   12   13 1
    23   12   31 1
    24   12   32 1
    25   13   14 1
    26   13   33 1
    27   13   34 1
    28   14   15 1
    29   14   35 1
    30   14   36 1
    31   15   16 1
    32   16   17 1
    33   16   37 1
    34   16   38 1
    35   17   21 1
    36   17   18 2
    37   18   19 1
    38   18   39 1
    39   19   20 2
    40   19   40 1
    41   20   21 1
    42   20   41 1
@<TRIPOS>MOLECULE
ZINC59263410
   47    47     0     0     0
SMALL
USER_CHARGES

@<TRIPOS>ATOM
      1 C1         -0.0187    1.5258    0.0104 C.3       1 <0>        -0.1671
      2 C2          0.0021   -0.0041    0.0020 C.3       1 <0>         0.1635
      3 H1         -1.0205   -0.3814    0.0098 H         1 <0>         0.0885
      4 C3          0.7182   -0.4975   -1.2568 C.3       1 <0>        -0.1034
      5 C4          0.7390   -2.0273   -1.2652 C.3       1 <0>        -0.1475
      6 C5         -0.0218    0.0093   -2.4963 C.3       1 <0>        -0.1482
      7 N1          0.7106   -0.4894    1.1889 N.am      1 <0>        -0.7406
      8 C6          0.0512   -0.6335    2.3554 C.2       1 <0>         0.7046
      9 O1         -1.1318   -0.3607    2.4228 O.2       1 <0>        -0.5895
     10 N2          0.7031   -1.0799    3.4473 N.am      1 <0>        -0.7472
     11 C7         -0.0137   -1.2366    4.7154 C.3       1 <0>         0.1419
     12 C8          0.9498   -1.7538    5.7854 C.3       1 <0>        -0.1302
     13 C9          0.2012   -1.9174    7.1097 C.3       1 <0>         0.0659
     14 O2          1.1012   -2.4005    8.1090 O.3       1 <0>        -0.3803
     15 C10         0.4991   -2.5890    9.3912 C.3       1 <0>         0.0647
     16 C11         1.5492   -3.1054   10.3768 C.3       1 <0>         0.0825
     17 H2          2.4118   -2.4392   10.3932 H         1 <0>         0.0795
     18 C12         0.9394   -3.2306   11.7957 C.3       1 <0>        -0.1506
     19 C13         1.8654   -4.3097   12.4203 C.3       1 <0>        -0.1556
     20 C14         2.1847   -5.2095   11.2072 C.3       1 <0>         0.0469
     21 O3          1.9543   -4.4369   10.0215 O.3       1 <0>        -0.3716
     22 H3          1.0039    1.9031    0.0027 H         1 <0>         0.0552
     23 H4         -0.5459    1.8868   -0.8726 H         1 <0>         0.0690
     24 H5         -0.5289    1.8773    0.9072 H         1 <0>         0.0607
     25 H6          1.7408   -0.1202   -1.2645 H         1 <0>         0.0745
     26 H7         -0.2836   -2.4046   -1.2575 H         1 <0>         0.0563
     27 H8          1.2492   -2.3788   -2.1620 H         1 <0>         0.0571
     28 H9          1.2661   -2.3884   -0.3821 H         1 <0>         0.0541
     29 H10        -0.0366    1.0992   -2.4903 H         1 <0>         0.0617
     30 H11         0.4884   -0.3422   -3.3931 H         1 <0>         0.0597
     31 H12        -1.0444   -0.3679   -2.4886 H         1 <0>         0.0584
     32 H13         1.6544   -0.7070    1.1351 H         1 <0>         0.3947
     33 H14         1.6468   -1.2976    3.3936 H         1 <0>         0.3970
     34 H15        -0.4180   -0.2730    5.0256 H         1 <0>         0.0683
     35 H16        -0.8293   -1.9481    4.5862 H         1 <0>         0.0686
     36 H17         1.3541   -2.7174    5.4751 H         1 <0>         0.0793
     37 H18         1.7654   -1.0422    5.9145 H         1 <0>         0.0782
     38 H19        -0.2030   -0.9538    7.4199 H         1 <0>         0.0529
     39 H20        -0.6143   -2.6290    6.9805 H         1 <0>         0.0537
     40 H21         0.1010   -1.6394    9.7488 H         1 <0>         0.0636
     41 H22        -0.3103   -3.3145    9.3094 H         1 <0>         0.0577
     42 H23         1.0120   -2.2885   12.3391 H         1 <0>         0.0876
     43 H24        -0.0930   -3.5774   11.7505 H         1 <0>         0.0817
     44 H25         2.7742   -3.8579   12.8181 H         1 <0>         0.0789
     45 H26         1.3402   -4.8717   13.1926 H         1 <0>         0.0848
     46 H27         3.2275   -5.5245   11.2447 H         1 <0>         0.0696
     47 H28         1.5328   -6.0831   11.2130 H         1 <0>         0.0701
@<TRIPOS>BOND
     1    1    2 1
     2    1   22 1
     3    1   23 1
     4    1   24 1
     5    2    3 1
     6    2    4 1
     7    2    7 1
     8    4    5 1
     9    4    6 1
    10    4   25 1
    11    5   26 1
    12    5   27 1
    13    5   28 1
    14    6   29 1
    15    6   30 1
    16    6   31 1
    17    7    8 am
    18    7   32 1
    19    8    9 2
    20    8   10 am
    21   10   11 1
    22   10   33 1
    23   11   12 1
    24   11   34 1
    25   11   35 1
    26   12   13 1
    27   12   36 1
    28   12   37 1
    29   13   14 1
    30   13   38 1
    31   13   39 1
    32   14   15 1
    33   15   16 1
    34   15   40 1
    35   15   41 1
    36   16   17 1
    37   16   21 1
    38   16   18 1
    39   18   19 1
    40   18   42 1
    41   18   43 1
    42   19   20 1
    43   19   44 1
    44   19   45 1
    45   20   21 1
    46   20   46 1
    47   20   47 1
@<TRIPOS>MOLECULE
ZINC62936727
   45    45     0     0     0
SMALL
USER_CHARGES

@<TRIPOS>ATOM
      1 C1         -0.0187    1.5258    0.0104 C.3       1 <0>        -0.1463
      2 C2          0.0021   -0.0041    0.0020 C.3       1 <0>        -0.1381
      3 C3         -1.4333   -0.5336    0.0129 C.3       1 <0>         0.1428
      4 C4         -1.4157   -2.0577   -0.1212 C.3       1 <0>        -0.1347
      5 C5         -2.8505   -2.5762   -0.2357 C.3       1 <0>        -0.1548
      6 N1         -2.0815   -0.1618    1.2729 N.am      1 <0>        -0.7026
      7 C6         -2.6637    1.0471    1.4001 C.2       1 <0>         0.5017
      8 O1         -2.6511    1.8270    0.4715 O.2       1 <0>        -0.5189
      9 C7         -3.3305    1.4296    2.6963 C.3       1 <0>        -0.0272
     10 N2         -3.8843    2.7853    2.5807 N.4       1 <0>        -0.3766
     11 C8         -5.0271    2.7926    1.6320 C.3       1 <0>        -0.0048
     12 C9         -5.8168    4.0623    2.0379 C.3       1 <0>        -0.1189
     13 C10        -5.6839    4.0743    3.5781 C.3       1 <0>        -0.1474
     14 C11        -4.4368    3.2232    3.8809 C.3       1 <0>         0.0017
     15 C12        -6.9227    3.4493    4.2229 C.3       1 <0>        -0.0912
     16 C13        -8.1596    4.2699    3.8520 C.3       1 <0>        -0.1631
     17 C14        -5.4888    5.4835    4.0753 C.2       1 <0>         0.5044
     18 O2         -6.3507    6.3235    3.8805 O.co2     1 <0>        -0.6551
     19 O3         -4.4689    5.7836    4.6723 O.co2     1 <0>        -0.6834
     20 H1          1.0039    1.9031    0.0027 H         1 <0>         0.0522
     21 H2         -0.5459    1.8868   -0.8726 H         1 <0>         0.0620
     22 H3         -0.5289    1.8773    0.9072 H         1 <0>         0.0477
     23 H4          0.5123   -0.3556   -0.8948 H         1 <0>         0.0783
     24 H5          0.5293   -0.3651    0.8851 H         1 <0>         0.0663
     25 H6         -1.9862   -0.1019   -0.8214 H         1 <0>         0.0962
     26 H7         -0.8559   -2.3374   -1.0137 H         1 <0>         0.0855
     27 H8         -0.9406   -2.4942    0.7573 H         1 <0>         0.0715
     28 H9         -3.4103   -2.2964    0.6568 H         1 <0>         0.0521
     29 H10        -3.3256   -2.1397   -1.1142 H         1 <0>         0.0574
     30 H11        -2.8380   -3.6619   -0.3312 H         1 <0>         0.0616
     31 H12        -2.0916   -0.7855    2.0157 H         1 <0>         0.4069
     32 H13        -4.1344    0.7261    2.9129 H         1 <0>         0.1524
     33 H14        -2.5980    1.4039    3.5031 H         1 <0>         0.1539
     34 H15        -4.6732    2.8719    0.6040 H         1 <0>         0.1366
     35 H16        -5.6400    1.9006    1.7612 H         1 <0>         0.1208
     36 H17        -5.3631    4.9537    1.6047 H         1 <0>         0.0928
     37 H18        -6.8623    3.9774    1.7416 H         1 <0>         0.1127
     38 H19        -4.7159    2.3545    4.4772 H         1 <0>         0.1160
     39 H20        -3.6992    3.8221    4.4150 H         1 <0>         0.1528
     40 H21        -7.0432    2.4275    3.8631 H         1 <0>         0.0485
     41 H22        -6.8035    3.4413    5.3063 H         1 <0>         0.0652
     42 H23        -9.0421    3.8246    4.3114 H         1 <0>         0.0441
     43 H24        -8.0391    5.2917    4.2118 H         1 <0>         0.0981
     44 H25        -8.2789    4.2779    2.7686 H         1 <0>         0.0490
     45 H26        -3.1704    3.4280    2.2718 H         1 <0>         0.4314
@<TRIPOS>BOND
     1    1    2 1
     2    1   20 1
     3    1   21 1
     4    1   22 1
     5    2    3 1
     6    2   23 1
     7    2   24 1
     8    3    4 1
     9    3    6 1
    10    3   25 1
    11    4    5 1
    12    4   26 1
    13    4   27 1
    14    5   28 1
    15    5   29 1
    16    5   30 1
    17    6    7 am
    18    6   31 1
    19    7    8 2
    20    7    9 1
    21    9   10 1
    22    9   32 1
    23    9   33 1
    24   10   14 1
    25   10   11 1
    26   10   45 1
    27   11   12 1
    28   11   34 1
    29   11   35 1
    30   12   13 1
    31   12   36 1
    32   12   37 1
    33   13   14 1
    34   13   15 1
    35   13   17 1
    36   14   38 1
    37   14   39 1
    38   15   16 1
    39   15   40 1
    40   15   41 1
    41   16   42 1
    42   16   43 1
    43   16   44 1
    44   17   18 2
    45   17   19 1
@<TRIPOS>MOLECULE
ZINC17457686
   41    42     0     0     0
SMALL
USER_CHARGES
3-(benzyl-(2-furylmethylcarbamothioyl)amino)propanamide
@<TRIPOS>ATOM
      1 C1         -0.0559    4.2672    0.0251 C.ar      1 <0>        -0.1109
      2 C2          1.1505    3.5924    0.0100 C.ar      1 <0>        -0.1272
      3 C3          1.1693    2.2102    0.0028 C.ar      1 <0>        -0.0860
      4 C4         -0.0184    1.5028    0.0103 C.ar      1 <0>        -0.1178
      5 C5         -1.2248    2.1776    0.0197 C.ar      1 <0>        -0.1067
      6 C6         -1.2435    3.5598    0.0322 C.ar      1 <0>        -0.1297
      7 C7          0.0021   -0.0041    0.0020 C.3       1 <0>         0.1528
      8 N1          0.0219   -0.4998    1.3805 N.pl3     1 <0>        -0.5626
      9 C8         -1.2368   -0.7649    2.0817 C.3       1 <0>         0.1072
     10 C9         -1.6611   -2.2145    1.8375 C.3       1 <0>        -0.1649
     11 C10        -2.9558   -2.4872    2.5589 C.2       1 <0>         0.5210
     12 O1         -3.4869   -1.6086    3.2047 O.2       1 <0>        -0.5396
     13 N2         -3.5236   -3.7074    2.4864 N.am      1 <0>        -0.8522
     14 C11         1.1980   -0.7119    2.0035 C.2       1 <0>         0.5636
     15 S1          2.6689   -0.4021    1.1840 S.2       1 <0>        -0.6303
     16 N3          1.2163   -1.1679    3.2716 N.pl3     1 <0>        -0.6849
     17 C12         2.4947   -1.3985    3.9488 C.3       1 <0>         0.2101
     18 C13         2.2394   -1.9036    5.3455 C.2       1 <0>        -0.0513
     19 C14         2.1166   -3.1939    5.7052 C.2       1 <0>        -0.1748
     20 C15         1.8857   -3.2101    7.1000 C.2       1 <0>        -0.2196
     21 C16         1.8811   -1.9287    7.5091 C.2       1 <0>        -0.0203
     22 O2          2.1016   -1.1420    6.4432 O.3       1 <0>        -0.1698
     23 H1         -0.0705    5.3471    0.0311 H         1 <0>         0.1201
     24 H2          2.0784    4.1450    0.0041 H         1 <0>         0.1222
     25 H3          2.1118    1.6830   -0.0091 H         1 <0>         0.1510
     26 H4         -2.1527    1.6249    0.0211 H         1 <0>         0.1169
     27 H5         -2.1860    4.0870    0.0437 H         1 <0>         0.1204
     28 H6         -0.8878   -0.3767   -0.5053 H         1 <0>         0.0919
     29 H7          0.8920   -0.3525   -0.5222 H         1 <0>         0.1235
     30 H8         -1.0985   -0.6019    3.1505 H         1 <0>         0.0866
     31 H9         -2.0092   -0.0924    1.7086 H         1 <0>         0.1067
     32 H10        -1.7993   -2.3774    0.7687 H         1 <0>         0.1084
     33 H11        -0.8886   -2.8869    2.2107 H         1 <0>         0.0988
     34 H12        -3.0988   -4.4100    1.9699 H         1 <0>         0.4040
     35 H13        -4.3569   -3.8829    2.9507 H         1 <0>         0.4060
     36 H14         0.3829   -1.3435    3.7359 H         1 <0>         0.3995
     37 H15         3.0712   -2.1390    3.3944 H         1 <0>         0.1200
     38 H16         3.0541   -0.4642    3.9969 H         1 <0>         0.1052
     39 H17         2.1814   -4.0527    5.0536 H         1 <0>         0.1523
     40 H18         1.7404   -4.0836    7.7182 H         1 <0>         0.1530
     41 H19         1.7309   -1.5901    8.5236 H         1 <0>         0.2073
@<TRIPOS>BOND
     1    1    6 ar
     2    1    2 ar
     3    1   23 1
     4    2    3 ar
     5    2   24 1
     6    3    4 ar
     7    3   25 1
     8    4    5 ar
     9    4    7 1
    10    5    6 ar
    11    5   26 1
    12    6   27 1
    13    7    8 1
    14    7   28 1
    15    7   29 1
    16    8    9 1
    17    8   14 1
    18    9   10 1
    19    9   30 1
    20    9   31 1
    21   10   11 1
    22   10   32 1
    23   10   33 1
    24   11   12 2
    25   11   13 am
    26   13   34 1
    27   13   35 1
    28   14   15 2
    29   14   16 1
    30   16   17 1
    31   16   36 1
    32   17   18 1
    33   17   37 1
    34   17   38 1
    35   18   22 1
    36   18   19 2
    37   19   20 1
    38   19   39 1
    39   20   21 2
    40   20   40 1
    41   21   22 1
    42   21   41 1
@<TRIPOS>MOLECULE
ZINC40792030
   45    45     0     0     0
SMALL
USER_CHARGES

@<TRIPOS>ATOM
      1 C1          0.8524   -0.2484   -1.2390 C.3       1 <0>        -0.1486
      2 C2         -0.0484   -0.0961   -0.0117 C.3       1 <0>        -0.0970
      3 C3         -1.3355   -0.8964   -0.2212 C.3       1 <0>        -0.1518
      4 C4          0.6827   -0.6207    1.2257 C.3       1 <0>        -0.1184
      5 C5         -0.1607   -0.3438    2.4719 C.3       1 <0>         0.1475
      6 H1         -1.1500   -0.7837    2.3462 H         1 <0>         0.1034
      7 C6          0.5199   -0.9604    3.6956 C.3       1 <0>         0.0613
      8 O1          1.8588   -0.4707    3.7933 O.3       1 <0>        -0.5697
      9 N1         -0.2901    1.1030    2.6624 N.am      1 <0>        -0.7160
     10 C7         -1.3436    1.6020    3.3389 C.2       1 <0>         0.5124
     11 O2         -2.1845    0.8534    3.7899 O.2       1 <0>        -0.5284
     12 C8         -1.4768    3.0903    3.5348 C.3       1 <0>        -0.1491
     13 C9         -2.7503    3.3882    4.3288 C.3       1 <0>         0.2507
     14 H2         -2.7359    2.8264    5.2628 H         1 <0>         0.1168
     15 C10        -2.8205    4.8630    4.6307 C.2       1 <0>        -0.1572
     16 C11        -2.4978    5.5167    5.7734 C.2       1 <0>        -0.1425
     17 C12        -2.6434    6.8903    5.8239 C.2       1 <0>        -0.1553
     18 C13        -3.1045    7.5431    4.7291 C.2       1 <0>        -0.1721
     19 S1         -3.3429    6.2033    3.5735 S.3       1 <0>         0.0400
     20 N2         -3.9206    2.9948    3.5403 N.am      1 <0>        -0.7169
     21 C14        -5.0760    2.6815    4.1595 C.2       1 <0>         0.5209
     22 O3         -5.1468    2.7252    5.3695 O.2       1 <0>        -0.5394
     23 C15        -6.2799    2.2769    3.3484 C.3       1 <0>        -0.1697
     24 H3          1.1689   -1.2874   -1.3307 H         1 <0>         0.0550
     25 H4          0.3011    0.0436   -2.1328 H         1 <0>         0.0551
     26 H5          1.7288    0.3900   -1.1279 H         1 <0>         0.0546
     27 H6         -0.2940    0.9563    0.1304 H         1 <0>         0.0693
     28 H7         -1.0898   -1.9488   -0.3633 H         1 <0>         0.0554
     29 H8         -1.9772   -0.7879    0.6532 H         1 <0>         0.0555
     30 H9         -1.8563   -0.5227   -1.1028 H         1 <0>         0.0547
     31 H10         0.8417   -1.6944    1.1258 H         1 <0>         0.0772
     32 H11         1.6453   -0.1180    1.3194 H         1 <0>         0.0785
     33 H12        -0.0331   -0.6882    4.5946 H         1 <0>         0.0512
     34 H13         0.5364   -2.0456    3.5939 H         1 <0>         0.0541
     35 H14         2.3515   -0.8206    4.5483 H         1 <0>         0.3802
     36 H15         0.3824    1.7017    2.3017 H         1 <0>         0.4030
     37 H16        -0.6115    3.4635    4.0825 H         1 <0>         0.1143
     38 H17        -1.5312    3.5812    2.5632 H         1 <0>         0.1030
     39 H18        -2.1328    4.9724    6.6318 H         1 <0>         0.1337
     40 H19        -2.3938    7.4353    6.7222 H         1 <0>         0.1349
     41 H20        -3.2787    8.5999    4.5905 H         1 <0>         0.1858
     42 H21        -3.8640    2.9599    2.5726 H         1 <0>         0.3993
     43 H22        -6.0269    2.2959    2.2884 H         1 <0>         0.0742
     44 H23        -6.5865    1.2697    3.6308 H         1 <0>         0.0956
     45 H24        -7.0972    2.9724    3.5395 H         1 <0>         0.0944
@<TRIPOS>BOND
     1    1    2 1
     2    1   24 1
     3    1   25 1
     4    1   26 1
     5    2    3 1
     6    2    4 1
     7    2   27 1
     8    3   28 1
     9    3   29 1
    10    3   30 1
    11    4    5 1
    12    4   31 1
    13    4   32 1
    14    5    6 1
    15    5    7 1
    16    5    9 1
    17    7    8 1
    18    7   33 1
    19    7   34 1
    20    8   35 1
    21    9   10 am
    22    9   36 1
    23   10   11 2
    24   10   12 1
    25   12   13 1
    26   12   37 1
    27   12   38 1
    28   13   14 1
    29   13   15 1
    30   13   20 1
    31   15   19 1
    32   15   16 2
    33   16   17 1
    34   16   39 1
    35   17   18 2
    36   17   40 1
    37   18   19 1
    38   18   41 1
    39   20   21 am
    40   20   42 1
    41   21   22 2
    42   21   23 1
    43   23   43 1
    44   23   44 1
    45   23   45 1
@<TRIPOS>MOLECULE
ZINC44872961
   46    45     0     0     0
SMALL
USER_CHARGES

@<TRIPOS>ATOM
      1 C1         -0.0914    1.5479    1.9960 C.3       1 <0>        -0.1487
      2 C2         -0.0351    0.1327    1.4172 C.3       1 <0>        -0.1345
      3 C3          0.8351   -0.7507    2.3134 C.3       1 <0>        -0.1177
      4 C4          0.8914   -2.1658    1.7347 C.3       1 <0>        -0.0165
      5 C5         -0.5229   -2.7454    1.6661 C.3       1 <0>        -0.0932
      6 C6         -1.1789   -2.6541    3.0454 C.3       1 <0>        -0.1301
      7 C7         -2.5932   -3.2337    2.9768 C.3       1 <0>        -0.1495
      8 C8          1.4827   -2.1188    0.3493 C.2       1 <0>         0.3861
      9 N1          1.8848   -0.9945   -0.1435 N.2       1 <0>        -0.4082
     10 O1          2.4404   -0.9503   -1.4452 O.3       1 <0>        -0.4261
     11 N2          1.5944   -3.2746   -0.3913 N.pl3     1 <0>        -0.8632
     12 C9          1.7486   -3.0359    2.6175 C.2       1 <0>         0.5258
     13 O2          1.2820   -4.0364    3.1196 O.2       1 <0>        -0.5266
     14 N3          3.0337   -2.7022    2.8489 N.am      1 <0>        -0.5978
     15 C10         3.5661   -1.4377    2.3352 C.3       1 <0>         0.0449
     16 C11         3.8982   -3.6039    3.6143 C.3       1 <0>         0.1142
     17 C12         4.5907   -4.5787    2.6598 C.3       1 <0>         0.0448
     18 O3          5.4694   -3.8557    1.7954 O.3       1 <0>        -0.3871
     19 C13         6.1697   -4.6774    0.8592 C.3       1 <0>         0.0329
     20 H1          0.9162    1.9608    2.0448 H         1 <0>         0.0540
     21 H2         -0.7114    2.1772    1.3574 H         1 <0>         0.0531
     22 H3         -0.5191    1.5139    2.9980 H         1 <0>         0.0496
     23 H4         -1.0427   -0.2802    1.3684 H         1 <0>         0.0581
     24 H5          0.3926    0.1667    0.4152 H         1 <0>         0.0939
     25 H6          1.8427   -0.3378    2.3623 H         1 <0>         0.0910
     26 H7          0.4075   -0.7846    3.3155 H         1 <0>         0.0764
     27 H8         -1.1129   -2.1796    0.9451 H         1 <0>         0.0768
     28 H9         -0.4732   -3.7891    1.3558 H         1 <0>         0.0728
     29 H10        -0.5889   -3.2199    3.7664 H         1 <0>         0.0802
     30 H11        -1.2286   -1.6104    3.3557 H         1 <0>         0.0649
     31 H12        -3.0605   -3.1687    3.9594 H         1 <0>         0.0552
     32 H13        -3.1832   -2.6679    2.2558 H         1 <0>         0.0516
     33 H14        -2.5435   -4.2774    2.6665 H         1 <0>         0.0541
     34 H15         2.7121   -0.0661   -1.7271 H         1 <0>         0.4004
     35 H16         1.3620   -4.1289    0.0050 H         1 <0>         0.3973
     36 H17         1.9054   -3.2343   -1.3092 H         1 <0>         0.4095
     37 H18         3.4381   -0.6578    3.0859 H         1 <0>         0.0575
     38 H19         4.6261   -1.5546    2.1098 H         1 <0>         0.0778
     39 H20         3.0301   -1.1599    1.4276 H         1 <0>         0.1071
     40 H21         4.6498   -3.0213    4.1471 H         1 <0>         0.0888
     41 H22         3.2965   -4.1628    4.3310 H         1 <0>         0.1025
     42 H23         5.1640   -5.3053    3.2355 H         1 <0>         0.0607
     43 H24         3.8405   -5.0980    2.0635 H         1 <0>         0.0510
     44 H25         6.7758   -5.4061    1.3975 H         1 <0>         0.0416
     45 H26         5.4523   -5.1987    0.2255 H         1 <0>         0.0386
     46 H27         6.8153   -4.0541    0.2405 H         1 <0>         0.0859
@<TRIPOS>BOND
     1    1    2 1
     2    1   20 1
     3    1   21 1
     4    1   22 1
     5    2    3 1
     6    2   23 1
     7    2   24 1
     8    3    4 1
     9    3   25 1
    10    3   26 1
    11    4    5 1
    12    4    8 1
    13    4   12 1
    14    5    6 1
    15    5   27 1
    16    5   28 1
    17    6    7 1
    18    6   29 1
    19    6   30 1
    20    7   31 1
    21    7   32 1
    22    7   33 1
    23    8    9 2
    24    8   11 1
    25    9   10 1
    26   10   34 1
    27   11   35 1
    28   11   36 1
    29   12   13 2
    30   12   14 am
    31   14   15 1
    32   14   16 1
    33   15   37 1
    34   15   38 1
    35   15   39 1
    36   16   17 1
    37   16   40 1
    38   16   41 1
    39   17   18 1
    40   17   42 1
    41   17   43 1
    42   18   19 1
    43   19   44 1
    44   19   45 1
    45   19   46 1
@<TRIPOS>MOLECULE
ZINC50511017
   40    40     0     0     0
SMALL
USER_CHARGES

@<TRIPOS>ATOM
      1 C1         -0.0173    1.4248    0.0099 C.3       1 <0>         0.0310
      2 O1          0.0021   -0.0041    0.0020 O.3       1 <0>        -0.3919
      3 C2         -1.2953   -0.6030    0.0112 C.3       1 <0>         0.0637
      4 C3         -1.1538   -2.1264    0.0017 C.3       1 <0>        -0.1344
      5 C4         -2.5429   -2.7677    0.0115 C.3       1 <0>         0.1196
      6 N1         -2.4075   -4.2264    0.0023 N.am      1 <0>        -0.7085
      7 C5         -3.5073   -5.0054    0.0087 C.2       1 <0>         0.5087
      8 O2         -4.6092   -4.4987    0.0219 O.2       1 <0>        -0.5323
      9 C6         -3.3680   -6.5059   -0.0007 C.3       1 <0>        -0.0246
     10 N2         -4.7017   -7.1216    0.0087 N.4       1 <0>        -0.4703
     11 C7         -4.5658   -8.5842   -0.0004 C.3       1 <0>        -0.0060
     12 H1         -3.9534   -8.8870   -0.8498 H         1 <0>         0.1396
     13 C8         -5.9298   -9.2147   -0.1146 C.ar      1 <0>        -0.1070
     14 C9         -6.9995   -8.6779    0.5772 C.ar      1 <0>        -0.1150
     15 C10        -8.2507   -9.2562    0.4724 C.ar      1 <0>        -0.1105
     16 C11        -8.4323  -10.3711   -0.3245 C.ar      1 <0>        -0.1063
     17 C12        -7.3629  -10.9073   -1.0170 C.ar      1 <0>        -0.1129
     18 C13        -6.1126  -10.3264   -0.9157 C.ar      1 <0>        -0.0884
     19 C14        -3.9092   -9.0358    1.2786 C.2       1 <0>         0.4961
     20 O3         -4.0667   -8.3951    2.3039 O.co2     1 <0>        -0.6613
     21 O4         -3.2205  -10.0418    1.2882 O.co2     1 <0>        -0.6293
     22 H2          1.0053    1.8021    0.0021 H         1 <0>         0.0895
     23 H3         -0.5445    1.7859   -0.8732 H         1 <0>         0.0434
     24 H4         -0.5275    1.7763    0.9067 H         1 <0>         0.0439
     25 H5         -1.8320   -0.2936    0.9080 H         1 <0>         0.0548
     26 H6         -1.8490   -0.2840   -0.8718 H         1 <0>         0.0539
     27 H7         -0.6171   -2.4359   -0.8952 H         1 <0>         0.0821
     28 H8         -0.6001   -2.4454    0.8847 H         1 <0>         0.0835
     29 H9         -3.0796   -2.4582    0.9083 H         1 <0>         0.0798
     30 H10        -3.0966   -2.4487   -0.8716 H         1 <0>         0.0788
     31 H11        -1.5262   -4.6316   -0.0082 H         1 <0>         0.4124
     32 H12        -2.8312   -6.8153   -0.8975 H         1 <0>         0.1548
     33 H13        -2.8143   -6.8249    0.8823 H         1 <0>         0.1680
     34 H14        -5.1985   -6.8351    0.8389 H         1 <0>         0.4337
     35 H15        -6.8576   -7.8070    1.1998 H         1 <0>         0.1217
     36 H16        -9.0862   -8.8373    1.0135 H         1 <0>         0.1303
     37 H17        -9.4097  -10.8233   -0.4058 H         1 <0>         0.1290
     38 H18        -7.5047  -11.7785   -1.6394 H         1 <0>         0.1311
     39 H19        -5.2778  -10.7431   -1.4596 H         1 <0>         0.1317
     40 H20        -5.2142   -6.8263   -0.8087 H         1 <0>         0.4177
@<TRIPOS>BOND
     1    1    2 1
     2    1   22 1
     3    1   23 1
     4    1   24 1
     5    2    3 1
     6    3    4 1
     7    3   25 1
     8    3   26 1
     9    4    5 1
    10    4   27 1
    11    4   28 1
    12    5    6 1
    13    5   29 1
    14    5   30 1
    15    6    7 am
    16    6   31 1
    17    7    8 2
    18    7    9 1
    19    9   10 1
    20    9   32 1
    21    9   33 1
    22   10   11 1
    23   10   34 1
    24   10   40 1
    25   11   12 1
    26   11   13 1
    27   11   19 1
    28   13   18 ar
    29   13   14 ar
    30   14   15 ar
    31   14   35 1
    32   15   16 ar
    33   15   36 1
    34   16   17 ar
    35   16   37 1
    36   17   18 ar
    37   17   38 1
    38   18   39 1
    39   19   20 2
    40   19   21 1
@<TRIPOS>MOLECULE
ZINC64082862
   31    30     0     0     0
SMALL
USER_CHARGES

@<TRIPOS>ATOM
      1 C1         -0.0187    1.5258    0.0104 C.3       1 <0>        -0.1519
      2 C2          0.0021   -0.0041    0.0020 C.3       1 <0>         0.0812
      3 C3          0.7421   -0.5109    1.2415 C.3       1 <0>        -0.1787
      4 O1         -1.3386   -0.4987    0.0122 O.3       1 <0>        -0.3563
      5 C4         -1.4988   -1.7570   -0.6458 C.3       1 <0>         0.0562
      6 C5         -2.9433   -2.1807   -0.5748 C.2       1 <0>         0.5205
      7 O2         -3.7556   -1.4745   -0.0158 O.2       1 <0>        -0.4903
      8 N1         -3.3325   -3.3442   -1.1326 N.am      1 <0>        -0.5528
      9 N2         -4.6754   -3.7381   -1.0665 N.pl3     1 <0>        -0.4592
     10 C6         -5.0646   -4.9016   -1.6243 C.2       1 <0>         0.5633
     11 S1         -6.7056   -5.3829   -1.5436 S.2       1 <0>        -0.5642
     12 N3         -4.1620   -5.6863   -2.2455 N.pl3     1 <0>        -0.6903
     13 C7         -4.5851   -6.9511   -2.8518 C.3       1 <0>         0.0843
     14 C8         -3.3763   -7.6422   -3.4860 C.3       1 <0>         0.4478
     15 F1         -2.4146   -7.8954   -2.5020 F         1 <0>        -0.1777
     16 F2         -3.7803   -8.8500   -4.0649 F         1 <0>        -0.1621
     17 F3         -2.8288   -6.8131   -4.4709 F         1 <0>        -0.1777
     18 H1          1.0039    1.9031    0.0027 H         1 <0>         0.0746
     19 H2         -0.5459    1.8868   -0.8726 H         1 <0>         0.0639
     20 H3         -0.5289    1.8773    0.9072 H         1 <0>         0.0675
     21 H4          0.5123   -0.3556   -0.8948 H         1 <0>         0.0657
     22 H5          1.7647   -0.1336    1.2338 H         1 <0>         0.0709
     23 H6          0.2319   -0.1594    2.1383 H         1 <0>         0.0679
     24 H7          0.7568   -1.6008    1.2356 H         1 <0>         0.0562
     25 H8         -1.1989   -1.6621   -1.6895 H         1 <0>         0.0912
     26 H9         -0.8762   -2.5053   -0.1555 H         1 <0>         0.0902
     27 H10        -2.6829   -3.9090   -1.5797 H         1 <0>         0.4207
     28 H11        -5.3250   -3.1733   -0.6194 H         1 <0>         0.4636
     29 H12        -3.2322   -5.4137   -2.2912 H         1 <0>         0.3978
     30 H13        -5.0117   -7.5971   -2.0844 H         1 <0>         0.1391
     31 H14        -5.3344   -6.7539   -3.6184 H         1 <0>         0.1391
@<TRIPOS>BOND
     1    1    2 1
     2    1   18 1
     3    1   19 1
     4    1   20 1
     5    2    3 1
     6    2    4 1
     7    2   21 1
     8    3   22 1
     9    3   23 1
    10    3   24 1
    11    4    5 1
    12    5    6 1
    13    5   25 1
    14    5   26 1
    15    6    7 2
    16    6    8 am
    17    8    9 1
    18    8   27 1
    19    9   10 1
    20    9   28 1
    21   10   11 2
    22   10   12 1
    23   12   13 1
    24   12   29 1
    25   13   14 1
    26   13   30 1
    27   13   31 1
    28   14   15 1
    29   14   16 1
    30   14   17 1
@<TRIPOS>MOLECULE
ZINC11895636
   31    31     0     0     0
SMALL
USER_CHARGES
3-[(4-ethylphenyl)sulfonylamino]propanoyl chloride
@<TRIPOS>ATOM
      1 C1         -2.3637    2.6621    6.1624 C.3       1 <0>        -0.1488
      2 C2         -3.1323    3.0725    4.9048 C.3       1 <0>        -0.0960
      3 C3         -2.3536    2.6586    3.6827 C.ar      1 <0>        -0.0218
      4 C4         -2.5594    1.4122    3.1214 C.ar      1 <0>        -0.1398
      5 C5         -1.8458    1.0330    1.9999 C.ar      1 <0>        -0.0146
      6 C6         -0.9267    1.9002    1.4394 C.ar      1 <0>        -0.6854
      7 C7         -0.7172    3.1446    2.0038 C.ar      1 <0>        -0.0175
      8 C8         -1.4339    3.5256    3.1228 C.ar      1 <0>        -0.1387
      9 S1         -0.0172    1.4168    0.0098 S.o2      1 <0>         2.6976
     10 O1          0.0021   -0.0041    0.0020 O.2       1 <0>        -0.9523
     11 O2          1.1718    2.1948    0.0027 O.2       1 <0>        -0.9516
     12 N1         -0.8975    1.8855   -1.3122 N.pl3     1 <0>        -1.1183
     13 C9         -1.1248    3.3089   -1.5738 C.3       1 <0>         0.1188
     14 C10        -1.6217    3.4906   -3.0094 C.3       1 <0>        -0.1399
     15 C11        -1.8555    4.9548   -3.2785 C.2       1 <0>         0.3997
     16 O3         -1.6462    5.7691   -2.4114 O.2       1 <0>        -0.4023
     17 Cl1        -2.4256    5.4712   -4.8348 Cl        1 <0>        -0.1139
     18 H1         -2.9269    2.9614    7.0463 H         1 <0>         0.0640
     19 H2         -2.2268    1.5807    6.1678 H         1 <0>         0.0582
     20 H3         -1.3898    3.1516    6.1691 H         1 <0>         0.0583
     21 H4         -3.2692    4.1539    4.8993 H         1 <0>         0.0789
     22 H5         -4.1061    2.5829    4.8981 H         1 <0>         0.0787
     23 H6         -3.2779    0.7349    3.5588 H         1 <0>         0.1335
     24 H7         -2.0065    0.0592    1.5613 H         1 <0>         0.1412
     25 H8          0.0040    3.8204    1.5685 H         1 <0>         0.1412
     26 H9         -1.2734    4.4995    3.5611 H         1 <0>         0.1338
     27 H10        -1.2626    1.2175   -1.9134 H         1 <0>         0.4219
     28 H11        -1.8729    3.6910   -0.8792 H         1 <0>         0.0801
     29 H12        -0.1917    3.8563   -1.4402 H         1 <0>         0.0949
     30 H13        -0.9353    3.1400   -3.6466 H         1 <0>         0.1133
     31 H14        -2.5547    2.9431   -3.1429 H         1 <0>         0.1267
@<TRIPOS>BOND
     1    1    2 1
     2    1   18 1
     3    1   19 1
     4    1   20 1
     5    2    3 1
     6    2   21 1
     7    2   22 1
     8    3    8 ar
     9    3    4 ar
    10    4    5 ar
    11    4   23 1
    12    5    6 ar
    13    5   24 1
    14    6    7 ar
    15    6    9 1
    16    7    8 ar
    17    7   25 1
    18    8   26 1
    19    9   10 2
    20    9   11 2
    21    9   12 1
    22   12   13 1
    23   12   27 1
    24   13   14 1
    25   13   28 1
    26   13   29 1
    27   14   15 1
    28   14   30 1
    29   14   31 1
    30   15   16 2
    31   15   17 1
@<TRIPOS>MOLECULE
ZINC36529883
   45    45     0     0     0
SMALL
USER_CHARGES

@<TRIPOS>ATOM
      1 C1         -0.0187    1.5258    0.0104 C.3       1 <0>        -0.1531
      2 C2          0.0021   -0.0041    0.0020 C.3       1 <0>        -0.1178
      3 C3          0.7421   -0.5109    1.2415 C.3       1 <0>        -0.0915
      4 C4          0.7625   -2.0177    1.2333 C.2       1 <0>        -0.1094
      5 C5          1.9024   -2.6578    1.3178 C.2       1 <0>        -0.1827
      6 C6          1.9228   -4.1647    1.3095 C.3       1 <0>         0.1665
      7 H1          2.2884   -4.5284    2.2698 H         1 <0>         0.1110
      8 C7          2.8324   -4.6487    0.2098 C.2       1 <0>         0.5088
      9 O1          2.3635   -5.0234   -0.8441 O.2       1 <0>        -0.5055
     10 N1          4.1669   -4.6651    0.3974 N.am      1 <0>        -0.7303
     11 C8          5.0511   -5.1356   -0.6717 C.3       1 <0>         0.1475
     12 C9          5.1700   -6.6594   -0.6016 C.3       1 <0>        -0.1270
     13 C10         6.0935   -7.1508   -1.7182 C.3       1 <0>        -0.1181
     14 C11         7.4783   -6.5228   -1.5481 C.3       1 <0>        -0.1219
     15 C12         7.3594   -4.9991   -1.6182 C.3       1 <0>        -0.1168
     16 C13         6.4359   -4.5077   -0.5017 C.3       1 <0>        -0.1257
     17 N2          0.5671   -4.6702    1.0799 N.am      1 <0>        -0.6218
     18 C14        -0.0745   -5.5267    2.0803 C.3       1 <0>         0.0828
     19 C15        -0.0899   -4.3472   -0.0517 C.2       1 <0>         0.4927
     20 O2          0.4413   -3.6381   -0.8800 O.2       1 <0>        -0.5066
     21 H2          1.0039    1.9031    0.0027 H         1 <0>         0.0531
     22 H3         -0.5459    1.8868   -0.8726 H         1 <0>         0.0549
     23 H4         -0.5289    1.8773    0.9072 H         1 <0>         0.0531
     24 H5         -1.0205   -0.3814    0.0098 H         1 <0>         0.0603
     25 H6          0.5123   -0.3556   -0.8948 H         1 <0>         0.0656
     26 H7          1.7647   -0.1336    1.2338 H         1 <0>         0.0651
     27 H8          0.2319   -0.1594    2.1383 H         1 <0>         0.0714
     28 H9         -0.1626   -2.5699    1.1576 H         1 <0>         0.1082
     29 H10         2.8274   -2.1056    1.3935 H         1 <0>         0.1205
     30 H11         4.5419   -4.3655    1.2402 H         1 <0>         0.3972
     31 H12         4.6378   -4.8475   -1.6383 H         1 <0>         0.0868
     32 H13         5.5834   -6.9475    0.3649 H         1 <0>         0.0624
     33 H14         4.1835   -7.1068   -0.7228 H         1 <0>         0.0649
     34 H15         6.1782   -8.2364   -1.6682 H         1 <0>         0.0647
     35 H16         5.6801   -6.8627   -2.6847 H         1 <0>         0.0642
     36 H17         7.8916   -6.8109   -0.5815 H         1 <0>         0.0625
     37 H18         8.1362   -6.8729   -2.3435 H         1 <0>         0.0643
     38 H19         8.3459   -4.5517   -1.4970 H         1 <0>         0.0676
     39 H20         6.9460   -4.7110   -2.5847 H         1 <0>         0.0652
     40 H21         6.3512   -3.4221   -0.5516 H         1 <0>         0.0683
     41 H22         6.8493   -4.7958    0.4649 H         1 <0>         0.0675
     42 H23         0.6046   -5.6766    2.9196 H         1 <0>         0.0765
     43 H24        -0.9891   -5.0504    2.4336 H         1 <0>         0.0651
     44 H25        -0.3165   -6.4904    1.6322 H         1 <0>         0.0631
     45 H26        -1.0893   -4.7199   -0.2210 H         1 <0>         0.1261
@<TRIPOS>BOND
     1    1    2 1
     2    1   21 1
     3    1   22 1
     4    1   23 1
     5    2    3 1
     6    2   24 1
     7    2   25 1
     8    3    4 1
     9    3   26 1
    10    3   27 1
    11    4    5 2
    12    4   28 1
    13    5    6 1
    14    5   29 1
    15    6    7 1
    16    6    8 1
    17    6   17 1
    18    8    9 2
    19    8   10 am
    20   10   11 1
    21   10   30 1
    22   11   16 1
    23   11   12 1
    24   11   31 1
    25   12   13 1
    26   12   32 1
    27   12   33 1
    28   13   14 1
    29   13   34 1
    30   13   35 1
    31   14   15 1
    32   14   36 1
    33   14   37 1
    34   15   16 1
    35   15   38 1
    36   15   39 1
    37   16   40 1
    38   16   41 1
    39   17   18 1
    40   17   19 am
    41   18   42 1
    42   18   43 1
    43   18   44 1
    44   19   20 2
    45   19   45 1
@<TRIPOS>MOLECULE
ZINC42034556
   40    40     0     0     0
SMALL
USER_CHARGES

@<TRIPOS>ATOM
      1 C1         -0.0187    1.5258    0.0104 C.3       1 <0>        -0.1492
      2 C2          0.0021   -0.0041    0.0020 C.3       1 <0>        -0.1183
      3 C3          0.7421   -0.5109    1.2415 C.3       1 <0>        -0.1541
      4 C4         -1.4333   -0.5336    0.0129 C.3       1 <0>         0.1166
      5 N1         -1.4164   -1.9929   -0.1155 N.pl3     1 <0>        -0.5915
      6 C5         -1.3576   -2.8331    1.0832 C.3       1 <0>         0.0932
      7 C6         -2.7784   -3.1471    1.5561 C.3       1 <0>        -0.1181
      8 C7         -3.4910   -3.9961    0.5013 C.3       1 <0>        -0.1657
      9 C8         -2.7178   -3.9187    2.8759 C.3       1 <0>        -0.1502
     10 C9         -1.4560   -2.5775   -1.3687 C.ar      1 <0>         0.4306
     11 C10        -1.5061   -1.7682   -2.5033 C.ar      1 <0>        -0.2124
     12 C11        -1.5451   -2.3490   -3.7411 C.ar      1 <0>         0.0635
     13 C12        -1.5331   -3.7518   -3.8237 C.ar      1 <0>        -0.1706
     14 C13        -1.4820   -4.4999   -2.6446 C.ar      1 <0>         0.1541
     15 N2         -1.4402   -3.8997   -1.4739 N.ar      1 <0>        -0.5044
     16 C14        -1.5743   -4.4230   -5.1327 C.2       1 <0>         0.5250
     17 O1         -1.6193   -3.7592   -6.1594 O.co2     1 <0>        -0.6543
     18 O2         -1.5635   -5.6449   -5.1942 O.co2     1 <0>        -0.6628
     19 H1          1.0039    1.9031    0.0027 H         1 <0>         0.0653
     20 H2         -0.5459    1.8868   -0.8726 H         1 <0>         0.0614
     21 H3         -0.5289    1.8773    0.9072 H         1 <0>         0.0602
     22 H4          0.5123   -0.3556   -0.8948 H         1 <0>         0.0790
     23 H5          1.7647   -0.1336    1.2338 H         1 <0>         0.0631
     24 H6          0.2319   -0.1594    2.1383 H         1 <0>         0.0595
     25 H7          0.7568   -1.6008    1.2356 H         1 <0>         0.0537
     26 H8         -1.9156   -0.2570    0.9504 H         1 <0>         0.0986
     27 H9         -1.9862   -0.1019   -0.8214 H         1 <0>         0.0949
     28 H10        -0.8384   -3.7627    0.8502 H         1 <0>         0.0756
     29 H11        -0.8209   -2.3048    1.8712 H         1 <0>         0.1122
     30 H12        -3.3262   -2.2164    1.7041 H         1 <0>         0.0867
     31 H13        -3.5342   -3.4464   -0.4390 H         1 <0>         0.0523
     32 H14        -2.9433   -4.9268    0.3533 H         1 <0>         0.0538
     33 H15        -4.5032   -4.2198    0.8382 H         1 <0>         0.0761
     34 H16        -2.2102   -3.3139    3.6273 H         1 <0>         0.0628
     35 H17        -3.7300   -4.1424    3.2128 H         1 <0>         0.0678
     36 H18        -2.1701   -4.8493    2.7279 H         1 <0>         0.0600
     37 H19        -1.5144   -0.6926   -2.4055 H         1 <0>         0.1713
     38 H20        -1.5846   -1.7434   -4.6344 H         1 <0>         0.1744
     39 H21        -1.4723   -5.5787   -2.6943 H         1 <0>         0.2091
     40 H22        -1.4011   -4.4378   -0.6678 H         1 <0>         0.4304
@<TRIPOS>BOND
     1    1    2 1
     2    1   19 1
     3    1   20 1
     4    1   21 1
     5    2    3 1
     6    2    4 1
     7    2   22 1
     8    3   23 1
     9    3   24 1
    10    3   25 1
    11    4    5 1
    12    4   26 1
    13    4   27 1
    14    5    6 1
    15    5   10 1
    16    6    7 1
    17    6   28 1
    18    6   29 1
    19    7    8 1
    20    7    9 1
    21    7   30 1
    22    8   31 1
    23    8   32 1
    24    8   33 1
    25    9   34 1
    26    9   35 1
    27    9   36 1
    28   10   15 ar
    29   10   11 ar
    30   11   12 ar
    31   11   37 1
    32   12   13 ar
    33   12   38 1
    34   13   14 ar
    35   13   16 1
    36   14   15 ar
    37   14   39 1
    38   15   40 1
    39   16   17 2
    40   16   18 1
@<TRIPOS>MOLECULE
ZINC49971579
   42    42     0     0     0
SMALL
USER_CHARGES

@<TRIPOS>ATOM
      1 C1         -0.0187    1.5258    0.0104 C.3       1 <0>        -0.1513
      2 C2          0.0021   -0.0041    0.0020 C.3       1 <0>         0.0423
      3 N1         -1.3761   -0.5125    0.0124 N.3       1 <0>        -0.6595
      4 C3         -1.3954   -1.9814    0.0047 C.3       1 <0>         0.2152
      5 C4         -0.6928   -2.4941   -1.2540 C.3       1 <0>        -0.1453
      6 C5         -2.8444   -2.4725    0.0159 C.3       1 <0>        -0.1263
      7 C6         -2.8644   -4.0023    0.0079 C.3       1 <0>         0.1213
      8 N2         -4.2519   -4.4726    0.0186 N.pl3     1 <0>        -0.6323
      9 C7         -4.9577   -4.7009   -1.2447 C.3       1 <0>         0.0935
     10 C8         -4.9029   -4.7037    1.2356 C.ar      1 <0>         0.1814
     11 C9         -4.2362   -4.4819    2.4333 C.ar      1 <0>        -0.1565
     12 C10        -4.8796   -4.7098    3.6339 C.ar      1 <0>        -0.1023
     13 C11        -6.1915   -5.1600    3.6435 C.ar      1 <0>         0.0716
     14 C12        -6.8581   -5.3822    2.4477 C.ar      1 <0>        -0.1584
     15 C13        -6.2180   -5.1494    1.2462 C.ar      1 <0>        -0.1560
     16 O1         -6.8244   -5.3841    4.8262 O.3       1 <0>        -0.3219
     17 C14        -8.1748   -5.8472    4.7619 C.3       1 <0>         0.0292
     18 C15        -0.6965   -2.4875    1.1973 C.1       1 <0>         0.1673
     19 N3         -0.1572   -2.8781    2.1177 N.1       1 <0>        -0.4150
     20 H1          1.0039    1.9031    0.0027 H         1 <0>         0.0639
     21 H2         -0.5459    1.8868   -0.8726 H         1 <0>         0.0679
     22 H3         -0.5289    1.8773    0.9072 H         1 <0>         0.0545
     23 H4          0.5123   -0.3556   -0.8948 H         1 <0>         0.0843
     24 H5          0.5293   -0.3651    0.8851 H         1 <0>         0.0318
     25 H6         -1.8899   -0.1483    0.8007 H         1 <0>         0.3505
     26 H7          0.3395   -2.1442   -1.2620 H         1 <0>         0.0671
     27 H8         -0.7071   -3.5839   -1.2598 H         1 <0>         0.0717
     28 H9         -1.2103   -2.1193   -2.1371 H         1 <0>         0.0886
     29 H10        -3.3449   -2.1073    0.9127 H         1 <0>         0.0759
     30 H11        -3.3618   -2.0977   -0.8671 H         1 <0>         0.0978
     31 H12        -2.3639   -4.3676   -0.8889 H         1 <0>         0.0840
     32 H13        -2.3469   -4.3771    0.8910 H         1 <0>         0.0718
     33 H14        -4.8030   -5.7308   -1.5663 H         1 <0>         0.0478
     34 H15        -6.0233   -4.5206   -1.1032 H         1 <0>         0.0679
     35 H16        -4.5720   -4.0211   -2.0044 H         1 <0>         0.0686
     36 H17        -3.2145   -4.1317    2.4259 H         1 <0>         0.1235
     37 H18        -4.3611   -4.5377    4.5655 H         1 <0>         0.1285
     38 H19        -7.8795   -5.7331    2.4561 H         1 <0>         0.1273
     39 H20        -6.7388   -5.3179    0.3152 H         1 <0>         0.1264
     40 H21        -8.5601   -5.9853    5.7721 H         1 <0>         0.0978
     41 H22        -8.7860   -5.1129    4.2372 H         1 <0>         0.0528
     42 H23        -8.2083   -6.7964    4.2272 H         1 <0>         0.0527
@<TRIPOS>BOND
     1    1    2 1
     2    1   20 1
     3    1   21 1
     4    1   22 1
     5    2    3 1
     6    2   23 1
     7    2   24 1
     8    3    4 1
     9    3   25 1
    10    4    5 1
    11    4    6 1
    12    4   18 1
    13    5   26 1
    14    5   27 1
    15    5   28 1
    16    6    7 1
    17    6   29 1
    18    6   30 1
    19    7    8 1
    20    7   31 1
    21    7   32 1
    22    8    9 1
    23    8   10 1
    24    9   33 1
    25    9   34 1
    26    9   35 1
    27   10   15 ar
    28   10   11 ar
    29   11   12 ar
    30   11   36 1
    31   12   13 ar
    32   12   37 1
    33   13   14 ar
    34   13   16 1
    35   14   15 ar
    36   14   38 1
    37   15   39 1
    38   16   17 1
    39   17   40 1
    40   17   41 1
    41   17   42 1
    42   18   19 3
@<TRIPOS>MOLECULE
ZINC62183013
   43    43     0     0     0
SMALL
USER_CHARGES

@<TRIPOS>ATOM
      1 C1         -3.7499   -2.0813    0.0626 C.3       1 <0>        -0.1803
      2 C2         -2.7383   -3.1977   -0.2043 C.3       1 <0>        -0.0139
      3 N1         -1.5642   -2.6412   -0.8896 N.4       1 <0>        -0.3660
      4 C3         -1.9679   -2.1074   -2.1973 C.3       1 <0>        -0.0072
      5 C4         -2.4199   -3.2570   -3.0999 C.3       1 <0>        -0.1814
      6 C5         -0.9887   -1.5615   -0.0764 C.3       1 <0>         0.0574
      7 C6         -0.4455   -2.1344    1.2072 C.ar      1 <0>         0.0865
      8 C7          0.8321   -2.6991    1.2278 C.ar      1 <0>        -0.1692
      9 C8          1.3191   -3.2264    2.4313 C.ar      1 <0>        -0.0377
     10 C9          0.5078   -3.1633    3.5503 C.ar      1 <0>        -0.1548
     11 C10        -0.7457   -2.5875    3.4466 C.ar      1 <0>         0.1383
     12 N2         -1.1767   -2.0937    2.3011 N.ar      1 <0>        -0.4703
     13 C11        -1.6316   -2.5173    4.6637 C.3       1 <0>        -0.0178
     14 C12        -1.1234   -1.4208    5.6019 C.3       1 <0>        -0.1393
     15 C13        -3.0645   -2.1968    4.2336 C.3       1 <0>        -0.1255
     16 C14        -1.6064   -3.8630    5.3912 C.3       1 <0>        -0.1430
     17 C15         1.6543   -2.7400    0.0035 C.2       1 <0>         0.5250
     18 O1          2.8114   -3.1321    0.0568 O.co2     1 <0>        -0.6452
     19 O2          1.1787   -2.3818   -1.0647 O.co2     1 <0>        -0.6968
     20 H1         -4.6021   -2.4860    0.6086 H         1 <0>         0.0942
     21 H2         -3.2780   -1.2974    0.6550 H         1 <0>         0.0888
     22 H3         -4.0902   -1.6651   -0.8856 H         1 <0>         0.0736
     23 H4         -2.4299   -3.6423    0.7419 H         1 <0>         0.1180
     24 H5         -3.1973   -3.9614   -0.8321 H         1 <0>         0.1197
     25 H6         -2.7904   -1.4046   -2.0646 H         1 <0>         0.1210
     26 H7         -1.1228   -1.5950   -2.6571 H         1 <0>         0.1345
     27 H8         -1.6413   -4.0191   -3.1351 H         1 <0>         0.0788
     28 H9         -3.3367   -3.6923   -2.7023 H         1 <0>         0.0725
     29 H10        -2.6037   -2.8788   -4.1055 H         1 <0>         0.0988
     30 H11        -0.1821   -1.0805   -0.6296 H         1 <0>         0.1691
     31 H12        -1.7613   -0.8272    0.1517 H         1 <0>         0.1228
     32 H13         2.3020   -3.6708    2.4839 H         1 <0>         0.1473
     33 H14         0.8496   -3.5599    4.4950 H         1 <0>         0.1384
     34 H15        -1.1414   -0.4620    5.0837 H         1 <0>         0.0577
     35 H16        -1.7642   -1.3700    6.4822 H         1 <0>         0.0653
     36 H17        -0.1026   -1.6491    5.9083 H         1 <0>         0.0582
     37 H18        -3.4266   -2.9780    3.5652 H         1 <0>         0.0520
     38 H19        -3.7053   -2.1460    5.1139 H         1 <0>         0.0541
     39 H20        -3.0825   -1.2380    3.7154 H         1 <0>         0.0637
     40 H21        -0.5856   -4.0914    5.6976 H         1 <0>         0.0606
     41 H22        -2.2472   -3.8123    6.2714 H         1 <0>         0.0658
     42 H23        -1.9685   -4.6442    4.7228 H         1 <0>         0.0563
     43 H24        -0.8758   -3.3671   -1.0206 H         1 <0>         0.4303
@<TRIPOS>BOND
     1    1    2 1
     2    1   20 1
     3    1   21 1
     4    1   22 1
     5    2    3 1
     6    2   23 1
     7    2   24 1
     8    3    4 1
     9    3    6 1
    10    3   43 1
    11    4    5 1
    12    4   25 1
    13    4   26 1
    14    5   27 1
    15    5   28 1
    16    5   29 1
    17    6    7 1
    18    6   30 1
    19    6   31 1
    20    7   12 ar
    21    7    8 ar
    22    8    9 ar
    23    8   17 1
    24    9   10 ar
    25    9   32 1
    26   10   11 ar
    27   10   33 1
    28   11   12 ar
    29   11   13 1
    30   13   14 1
    31   13   15 1
    32   13   16 1
    33   14   34 1
    34   14   35 1
    35   14   36 1
    36   15   37 1
    37   15   38 1
    38   15   39 1
    39   16   40 1
    40   16   41 1
    41   16   42 1
    42   17   18 2
    43   17   19 1
@<TRIPOS>MOLECULE
ZINC13747295
   32    32     0     0     0
SMALL
USER_CHARGES
[(3-chloro-5-ethoxy-4-methoxy-phenyl)methyleneamino]thiourea
@<TRIPOS>ATOM
      1 C1          5.9840   -4.9758   -0.0805 C.3       1 <0>        -0.1536
      2 C2          4.7615   -4.0560   -0.0643 C.3       1 <0>         0.0491
      3 O1          3.5709   -4.8462   -0.0577 O.3       1 <0>        -0.2972
      4 C3          2.3865   -4.1781   -0.0432 C.ar      1 <0>         0.1274
      5 C4          2.3729   -2.7955   -0.0415 C.ar      1 <0>        -0.1615
      6 C5          1.1547   -2.1118   -0.0203 C.ar      1 <0>        -0.0190
      7 C6         -0.0447   -2.8285   -0.0127 C.ar      1 <0>        -0.0936
      8 C7         -0.0235   -4.2082   -0.0208 C.ar      1 <0>        -0.0259
      9 C8          1.1876   -4.8867   -0.0360 C.ar      1 <0>         0.0950
     10 O2          1.2033   -6.2462   -0.0435 O.3       1 <0>        -0.3153
     11 C9          1.1987   -6.8881   -1.3202 C.3       1 <0>         0.0350
     12 Cl1        -1.5144   -5.0975   -0.0113 Cl        1 <0>        -0.0355
     13 C10         1.1347   -0.6376   -0.0122 C.2       1 <0>         0.1525
     14 N1          0.0021   -0.0041    0.0020 N.2       1 <0>        -0.2774
     15 N2         -0.0169    1.3968    0.0097 N.pl3     1 <0>        -0.5373
     16 C11        -1.1931    2.0547    0.0189 C.2       1 <0>         0.6024
     17 S1         -1.2164    3.7665    0.0283 S.2       1 <0>        -0.6105
     18 N3         -2.3511    1.3651    0.0206 N.pl3     1 <0>        -0.7825
     19 H1          5.9736   -5.6096    0.8062 H         1 <0>         0.0694
     20 H2          5.9573   -5.6000   -0.9737 H         1 <0>         0.0679
     21 H3          6.8922   -4.3730   -0.0856 H         1 <0>         0.0821
     22 H4          4.7719   -3.4221   -0.9511 H         1 <0>         0.0659
     23 H5          4.7882   -3.4317    0.8288 H         1 <0>         0.0671
     24 H6          3.3021   -2.2452   -0.0515 H         1 <0>         0.1480
     25 H7         -0.9880   -2.3028   -0.0001 H         1 <0>         0.1493
     26 H8          1.2125   -7.9694   -1.1834 H         1 <0>         0.1003
     27 H9          0.3001   -6.6026   -1.8672 H         1 <0>         0.0490
     28 H10         2.0798   -6.5819   -1.8841 H         1 <0>         0.0504
     29 H11         2.0625   -0.0849   -0.0181 H         1 <0>         0.1363
     30 H12         0.8164    1.8932    0.0044 H         1 <0>         0.4203
     31 H13        -2.3379    0.3952    0.0153 H         1 <0>         0.4085
     32 H14        -3.1976    1.8386    0.0272 H         1 <0>         0.4336
@<TRIPOS>BOND
     1    1    2 1
     2    1   19 1
     3    1   20 1
     4    1   21 1
     5    2    3 1
     6    2   22 1
     7    2   23 1
     8    3    4 1
     9    4    9 ar
    10    4    5 ar
    11    5    6 ar
    12    5   24 1
    13    6    7 ar
    14    6   13 1
    15    7    8 ar
    16    7   25 1
    17    8    9 ar
    18    8   12 1
    19    9   10 1
    20   10   11 1
    21   11   26 1
    22   11   27 1
    23   11   28 1
    24   13   14 2
    25   13   29 1
    26   14   15 1
    27   15   16 1
    28   15   30 1
    29   16   17 2
    30   16   18 1
    31   18   31 1
    32   18   32 1
@<TRIPOS>MOLECULE
ZINC41064688
   34    35     0     0     0
SMALL
USER_CHARGES

@<TRIPOS>ATOM
      1 C1         -0.0791    1.2561    0.0215 C.ar      1 <0>        -0.0169
      2 C2          1.0216    2.0878   -0.0091 C.ar      1 <0>        -0.2032
      3 C3          2.3014    1.5484   -0.0364 C.ar      1 <0>         0.2936
      4 C4          2.4682    0.1541   -0.0327 C.ar      1 <0>        -0.2139
      5 C5          1.3436   -0.6753   -0.0015 C.ar      1 <0>         0.0035
      6 C6          0.0814   -0.1213    0.0252 C.ar      1 <0>        -0.1128
      7 Cl1        -1.3140   -1.1533    0.0644 Cl        1 <0>        -0.0660
      8 C7          3.8197   -0.4306   -0.0619 C.2       1 <0>         0.5300
      9 O1          4.7952    0.2895    0.0192 O.2       1 <0>        -0.5200
     10 O2          3.9745   -1.7643   -0.1784 O.3       1 <0>        -0.3199
     11 C8          5.3137   -2.2625   -0.2001 C.3       1 <0>         0.0486
     12 C9          5.2892   -3.7633   -0.3347 C.2       1 <0>         0.5149
     13 O3          4.2293   -4.3486   -0.4051 O.2       1 <0>        -0.5128
     14 N1          6.4451   -4.4551   -0.3768 N.am      1 <0>        -0.7242
     15 C10         6.4213   -5.9141   -0.5076 C.3       1 <0>         0.1520
     16 C11         7.8551   -6.4475   -0.5308 C.3       1 <0>        -0.1751
     17 C12         8.3276   -7.1482   -1.8063 C.3       1 <0>        -0.1760
     18 C13         8.0438   -7.9658   -0.5445 C.3       1 <0>        -0.1682
     19 N2          3.4105    2.3840   -0.0676 N.pl3     1 <0>        -0.8488
     20 H1         -1.0718    1.6807    0.0472 H         1 <0>         0.1412
     21 H2          0.8879    3.1595   -0.0122 H         1 <0>         0.1419
     22 H3          1.4632   -1.7486    0.0012 H         1 <0>         0.1504
     23 H4          5.8484   -1.8306   -1.0460 H         1 <0>         0.1023
     24 H5          5.8182   -1.9890    0.7266 H         1 <0>         0.1025
     25 H6          7.2928   -3.9870   -0.3205 H         1 <0>         0.4041
     26 H7          5.8865   -6.3460    0.3383 H         1 <0>         0.0756
     27 H8          5.9168   -6.1876   -1.4343 H         1 <0>         0.0731
     28 H9          8.5863   -5.8544    0.0184 H         1 <0>         0.1117
     29 H10         7.6170   -7.2291   -2.6288 H         1 <0>         0.0979
     30 H11         9.3699   -7.0159   -2.0965 H         1 <0>         0.0975
     31 H12         8.8994   -8.3714   -0.0047 H         1 <0>         0.0997
     32 H13         7.1465   -8.5846   -0.5370 H         1 <0>         0.0992
     33 H14         3.2929    3.3431   -0.1519 H         1 <0>         0.4005
     34 H15         4.3026    2.0083   -0.0053 H         1 <0>         0.4176
@<TRIPOS>BOND
     1    1    6 ar
     2    1    2 ar
     3    1   20 1
     4    2    3 ar
     5    2   21 1
     6    3    4 ar
     7    3   19 1
     8    4    5 ar
     9    4    8 1
    10    5    6 ar
    11    5   22 1
    12    6    7 1
    13    8    9 2
    14    8   10 1
    15   10   11 1
    16   11   12 1
    17   11   23 1
    18   11   24 1
    19   12   13 2
    20   12   14 am
    21   14   15 1
    22   14   25 1
    23   15   16 1
    24   15   26 1
    25   15   27 1
    26   16   18 1
    27   16   17 1
    28   16   28 1
    29   17   18 1
    30   17   29 1
    31   17   30 1
    32   18   31 1
    33   18   32 1
    34   19   33 1
    35   19   34 1
@<TRIPOS>MOLECULE
ZINC44864752
   46    46     0     0     0
SMALL
USER_CHARGES

@<TRIPOS>ATOM
      1 C1         -0.0125    1.5599   -0.5792 C.3       1 <0>        -0.1497
      2 C2         -0.0157    0.0453   -0.3628 C.3       1 <0>        -0.1302
      3 C3          0.6698   -0.6404   -1.5464 C.3       1 <0>        -0.0945
      4 C4          0.6665   -2.1550   -1.3301 C.3       1 <0>        -0.0160
      5 C5         -0.7672   -2.6330   -1.0915 C.3       1 <0>        -0.1280
      6 C6         -1.5992   -2.4003   -2.3542 C.3       1 <0>        -0.1434
      7 C7         -3.0607   -2.7561   -2.0747 C.3       1 <0>        -0.1519
      8 C8          1.2272   -2.8380   -2.5508 C.2       1 <0>         0.3766
      9 N1          2.2195   -3.6570   -2.4343 N.2       1 <0>        -0.4080
     10 O1          2.7463   -4.2987   -3.5813 O.3       1 <0>        -0.4230
     11 N2          0.6817   -2.5891   -3.7907 N.pl3     1 <0>        -0.8653
     12 C9          1.5148   -2.4930   -0.1312 C.2       1 <0>         0.5442
     13 O2          2.1364   -1.6205    0.4373 O.2       1 <0>        -0.5305
     14 N3          1.5827   -3.7650    0.3092 N.am      1 <0>        -0.5927
     15 C10         0.9441   -4.8530   -0.4439 C.3       1 <0>         0.1069
     16 C11         1.9863   -5.9424   -0.7159 C.3       1 <0>        -0.1308
     17 C12         2.6179   -6.3803    0.6075 C.3       1 <0>        -0.1202
     18 C13         3.3238   -5.1879    1.2570 C.3       1 <0>        -0.1326
     19 C14         2.3020   -4.0908    1.5482 C.3       1 <0>         0.1111
     20 H1          1.0156    1.9134   -0.6582 H         1 <0>         0.0552
     21 H2         -0.5498    1.7970   -1.4974 H         1 <0>         0.0514
     22 H3         -0.5009    2.0484    0.2640 H         1 <0>         0.0555
     23 H4          0.5216   -0.1917    0.5554 H         1 <0>         0.0811
     24 H5         -1.0438   -0.3082   -0.2838 H         1 <0>         0.0634
     25 H6          0.1324   -0.4034   -2.4646 H         1 <0>         0.0716
     26 H7          1.6978   -0.2869   -1.6254 H         1 <0>         0.0782
     27 H8         -0.7605   -3.6963   -0.8516 H         1 <0>         0.0854
     28 H9         -1.2025   -2.0761   -0.2617 H         1 <0>         0.0892
     29 H10        -1.5298   -1.3527   -2.6470 H         1 <0>         0.0688
     30 H11        -1.2200   -3.0287   -3.1601 H         1 <0>         0.0802
     31 H12        -3.4399   -2.1277   -1.2688 H         1 <0>         0.0559
     32 H13        -3.6535   -2.5903   -2.9743 H         1 <0>         0.0575
     33 H14        -3.1301   -3.8037   -1.7819 H         1 <0>         0.0549
     34 H15         3.4864   -4.8925   -3.3948 H         1 <0>         0.3986
     35 H16        -0.0127   -1.9190   -3.8894 H         1 <0>         0.3999
     36 H17         0.9919   -3.0839   -4.5652 H         1 <0>         0.4077
     37 H18         0.1240   -5.2698    0.1409 H         1 <0>         0.0594
     38 H19         0.5626   -4.4680   -1.3895 H         1 <0>         0.0936
     39 H20         1.5037   -6.7974   -1.1892 H         1 <0>         0.0659
     40 H21         2.7597   -5.5492   -1.3757 H         1 <0>         0.0816
     41 H22         1.8406   -6.7503    1.2760 H         1 <0>         0.0608
     42 H23         3.3423   -7.1728    0.4194 H         1 <0>         0.0637
     43 H24         3.7933   -5.5059    2.1879 H         1 <0>         0.0730
     44 H25         4.0847   -4.8019    0.5787 H         1 <0>         0.0676
     45 H26         2.8162   -3.2030    1.9165 H         1 <0>         0.0918
     46 H27         1.5951   -4.4440    2.2990 H         1 <0>         0.0659
@<TRIPOS>BOND
     1    1    2 1
     2    1   20 1
     3    1   21 1
     4    1   22 1
     5    2    3 1
     6    2   23 1
     7    2   24 1
     8    3    4 1
     9    3   25 1
    10    3   26 1
    11    4    5 1
    12    4    8 1
    13    4   12 1
    14    5    6 1
    15    5   27 1
    16    5   28 1
    17    6    7 1
    18    6   29 1
    19    6   30 1
    20    7   31 1
    21    7   32 1
    22    7   33 1
    23    8    9 2
    24    8   11 1
    25    9   10 1
    26   10   34 1
    27   11   35 1
    28   11   36 1
    29   12   13 2
    30   12   14 am
    31   14   19 1
    32   14   15 1
    33   15   16 1
    34   15   37 1
    35   15   38 1
    36   16   17 1
    37   16   39 1
    38   16   40 1
    39   17   18 1
    40   17   41 1
    41   17   42 1
    42   18   19 1
    43   18   43 1
    44   18   44 1
    45   19   45 1
    46   19   46 1
@<TRIPOS>MOLECULE
ZINC49284940
   42    42     0     0     0
SMALL
USER_CHARGES

@<TRIPOS>ATOM
      1 C1         -0.0184    1.5028    0.0103 C.3       1 <0>        -0.1119
      2 C2          0.0021   -0.0041    0.0020 C.ar      1 <0>        -0.1651
      3 C3          0.0058   -0.6902   -1.2067 C.ar      1 <0>         0.2339
      4 C4          0.0246   -2.0764   -1.2174 C.ar      1 <0>        -0.1390
      5 C5          0.0402   -2.7796   -0.0122 C.ar      1 <0>        -0.0554
      6 C6          0.0368   -2.0828    1.1975 C.ar      1 <0>        -0.1486
      7 C7          0.0229   -0.7004    1.1981 C.ar      1 <0>         0.1354
      8 F1          0.0244   -0.0272    2.3695 F         1 <0>        -0.1289
      9 C8          0.0598   -4.2569   -0.0164 C.2       1 <0>         0.5161
     10 O1          0.0623   -4.8613   -1.0700 O.2       1 <0>        -0.4971
     11 O2          0.0748   -4.9336    1.1483 O.3       1 <0>        -0.3211
     12 C9          0.0933   -6.3604    1.0695 C.3       1 <0>         0.0478
     13 C10         0.1083   -6.9401    2.4604 C.2       1 <0>         0.5149
     14 O3          0.1036   -6.2041    3.4243 O.2       1 <0>        -0.5130
     15 N1          0.1269   -8.2767    2.6332 N.am      1 <0>        -0.7276
     16 C11         0.1415   -8.8403    3.9854 C.3       1 <0>         0.1175
     17 C12         0.1613  -10.3678    3.9010 C.3       1 <0>        -0.1281
     18 C13         0.1765  -10.9565    5.3131 C.3       1 <0>        -0.0935
     19 C14         0.0706  -12.4806    5.2315 C.3       1 <0>        -0.1484
     20 C15         1.4826  -10.5727    6.0116 C.3       1 <0>        -0.1540
     21 N2         -0.0099    0.0173   -2.4112 N.pl3     1 <0>        -0.8677
     22 H1          1.0042    1.8801    0.0026 H         1 <0>         0.0763
     23 H2         -0.5455    1.8639   -0.8728 H         1 <0>         0.0687
     24 H3         -0.5286    1.8543    0.9071 H         1 <0>         0.0763
     25 H4          0.0267   -2.6106   -2.1561 H         1 <0>         0.1442
     26 H5          0.0485   -2.6234    2.1323 H         1 <0>         0.1523
     27 H6         -0.7949   -6.7066    0.5411 H         1 <0>         0.1026
     28 H7          0.9849   -6.6830    0.5317 H         1 <0>         0.1026
     29 H8          0.1307   -8.8654    1.8623 H         1 <0>         0.4032
     30 H9          1.0297   -8.4940    4.5138 H         1 <0>         0.0738
     31 H10        -0.7500   -8.5176    4.5231 H         1 <0>         0.0705
     32 H11        -0.7269  -10.7141    3.3726 H         1 <0>         0.0710
     33 H12         1.0528  -10.6905    3.3632 H         1 <0>         0.0713
     34 H13        -0.6676  -10.5634    5.8797 H         1 <0>         0.0740
     35 H14         0.9147  -12.8737    4.6649 H         1 <0>         0.0554
     36 H15         0.0814  -12.9000    6.2376 H         1 <0>         0.0575
     37 H16        -0.8599  -12.7540    4.7339 H         1 <0>         0.0552
     38 H17         2.3267  -10.9658    5.4450 H         1 <0>         0.0557
     39 H18         1.5580   -9.4869    6.0698 H         1 <0>         0.0582
     40 H19         1.4934  -10.9921    7.0176 H         1 <0>         0.0570
     41 H20        -0.0234    0.9872   -2.4039 H         1 <0>         0.4034
     42 H21        -0.0074   -0.4613   -3.2549 H         1 <0>         0.4046
@<TRIPOS>BOND
     1    1    2 1
     2    1   22 1
     3    1   23 1
     4    1   24 1
     5    2    7 ar
     6    2    3 ar
     7    3    4 ar
     8    3   21 1
     9    4    5 ar
    10    4   25 1
    11    5    6 ar
    12    5    9 1
    13    6    7 ar
    14    6   26 1
    15    7    8 1
    16    9   10 2
    17    9   11 1
    18   11   12 1
    19   12   13 1
    20   12   27 1
    21   12   28 1
    22   13   14 2
    23   13   15 am
    24   15   16 1
    25   15   29 1
    26   16   17 1
    27   16   30 1
    28   16   31 1
    29   17   18 1
    30   17   32 1
    31   17   33 1
    32   18   19 1
    33   18   20 1
    34   18   34 1
    35   19   35 1
    36   19   36 1
    37   19   37 1
    38   20   38 1
    39   20   39 1
    40   20   40 1
    41   21   41 1
    42   21   42 1
@<TRIPOS>MOLECULE
ZINC61431701
   38    38     0     0     0
SMALL
USER_CHARGES

@<TRIPOS>ATOM
      1 C1          1.8209   -3.8351    0.1494 C.3       1 <0>        -0.1474
      2 C2          0.9268   -3.5727    1.3629 C.3       1 <0>        -0.1110
      3 C3          1.1615   -2.1719    1.8664 C.2       1 <0>        -0.0964
      4 C4          0.1452   -1.3188    1.9570 C.2       1 <0>        -0.1668
      5 C5          0.3978    0.1157    2.3439 C.3       1 <0>        -0.1050
      6 C6         -1.2253   -1.7754    1.6795 C.2       1 <0>         0.5633
      7 O1         -1.7469   -1.5195    0.6111 O.2       1 <0>        -0.5229
      8 N1         -1.9030   -2.4773    2.6093 N.am      1 <0>        -0.5269
      9 N2         -3.2083   -2.9122    2.3450 N.am      1 <0>        -0.5322
     10 C7         -3.8859   -3.6141    3.2748 C.2       1 <0>         0.7146
     11 O2         -5.0188   -3.9915    3.0455 O.2       1 <0>        -0.5648
     12 N3         -3.3079   -3.8977    4.4589 N.am      1 <0>        -0.7444
     13 C8         -4.0445   -4.6607    5.4695 C.3       1 <0>         0.1398
     14 C9         -3.1678   -4.8431    6.7101 C.3       1 <0>        -0.0457
     15 C10        -3.9255   -5.6279    7.7498 C.2       1 <0>        -0.1472
     16 C11        -3.9706   -6.9690    7.9418 C.2       1 <0>        -0.1493
     17 C12        -4.7421   -7.4730    8.9720 C.2       1 <0>        -0.1587
     18 C13        -5.4310   -6.6114    9.7597 C.2       1 <0>        -0.1689
     19 S1         -4.9906   -5.0323    9.0529 S.3       1 <0>         0.0404
     20 H1          2.8662   -3.7228    0.4373 H         1 <0>         0.0601
     21 H2          1.6511   -4.8483   -0.2147 H         1 <0>         0.0611
     22 H3          1.5824   -3.1209   -0.6388 H         1 <0>         0.0588
     23 H4         -0.1185   -3.6850    1.0751 H         1 <0>         0.0662
     24 H5          1.1653   -4.2868    2.1511 H         1 <0>         0.0809
     25 H6          2.1550   -1.8607    2.1537 H         1 <0>         0.1340
     26 H7          0.5771    0.7078    1.4465 H         1 <0>         0.0788
     27 H8         -0.4720    0.5084    2.8706 H         1 <0>         0.0659
     28 H9          1.2708    0.1682    2.9944 H         1 <0>         0.0772
     29 H10        -1.4869   -2.6814    3.4615 H         1 <0>         0.4198
     30 H11        -3.6243   -2.7081    1.4929 H         1 <0>         0.4447
     31 H12        -2.4041   -3.5966    4.6418 H         1 <0>         0.3918
     32 H13        -4.9519   -4.1216    5.7419 H         1 <0>         0.0758
     33 H14        -4.3098   -5.6376    5.0653 H         1 <0>         0.0768
     34 H15        -2.2605   -5.3822    6.4377 H         1 <0>         0.0943
     35 H16        -2.9025   -3.8662    7.1143 H         1 <0>         0.0876
     36 H17        -3.4122   -7.6337    7.2994 H         1 <0>         0.1338
     37 H18        -4.7957   -8.5375    9.1465 H         1 <0>         0.1351
     38 H19        -6.0757   -6.8246   10.5995 H         1 <0>         0.1866
@<TRIPOS>BOND
     1    1    2 1
     2    1   20 1
     3    1   21 1
     4    1   22 1
     5    2    3 1
     6    2   23 1
     7    2   24 1
     8    3    4 2
     9    3   25 1
    10    4    5 1
    11    4    6 1
    12    5   26 1
    13    5   27 1
    14    5   28 1
    15    6    7 2
    16    6    8 am
    17    8    9 1
    18    8   29 1
    19    9   10 am
    20    9   30 1
    21   10   11 2
    22   10   12 am
    23   12   13 1
    24   12   31 1
    25   13   14 1
    26   13   32 1
    27   13   33 1
    28   14   15 1
    29   14   34 1
    30   14   35 1
    31   15   19 1
    32   15   16 2
    33   16   17 1
    34   16   36 1
    35   17   18 2
    36   17   37 1
    37   18   19 1
    38   18   38 1
@<TRIPOS>MOLECULE
ZINC19912222
   41    42     0     0     0
SMALL
USER_CHARGES
3,4-diethoxy-N-[(5-methyl-2-furyl)methyl]aniline
@<TRIPOS>ATOM
      1 C1          5.9675    2.2834   -0.0440 C.3       1 <0>        -0.1536
      2 C2          4.7646    1.3379   -0.0372 C.3       1 <0>         0.0538
      3 O1          3.5577    2.1028   -0.0211 O.3       1 <0>        -0.3088
      4 C3          2.3867    1.4092   -0.0132 C.ar      1 <0>         0.0435
      5 C4          2.4022    0.0239   -0.0207 C.ar      1 <0>        -0.1217
      6 C5          1.2139   -0.6819   -0.0132 C.ar      1 <0>        -0.2008
      7 C6          0.0021   -0.0041    0.0020 C.ar      1 <0>         0.2271
      8 C7         -0.0168    1.3840    0.0097 C.ar      1 <0>        -0.2487
      9 C8          1.1742    2.0914    0.0021 C.ar      1 <0>         0.1509
     10 O2          1.1583    3.4512    0.0091 O.3       1 <0>        -0.3025
     11 C9         -0.1224    4.0849    0.0243 C.3       1 <0>         0.0523
     12 C10         0.0603    5.6040    0.0302 C.3       1 <0>        -0.1543
     13 N1         -1.2000   -0.7201    0.0092 N.pl3     1 <0>        -0.7556
     14 C11        -1.1801   -2.1850    0.0011 C.3       1 <0>         0.2137
     15 C12        -2.5939   -2.7066    0.0113 C.2       1 <0>        -0.0401
     16 C13        -3.3419   -2.9730   -1.0745 C.2       1 <0>        -0.1780
     17 C14        -4.5923   -3.4384   -0.6064 C.2       1 <0>        -0.2183
     18 C15        -4.5335   -3.4284    0.7374 C.2       1 <0>         0.0000
     19 O3         -3.3188   -2.9898    1.1059 O.3       1 <0>        -0.1704
     20 C16        -5.6409   -3.8444    1.6711 C.3       1 <0>        -0.0809
     21 H1          6.8966    1.6946   -0.0564 H         1 <0>         0.0772
     22 H2          5.9442    2.9128    0.8578 H         1 <0>         0.0662
     23 H3          5.9264    2.9225   -0.9383 H         1 <0>         0.0662
     24 H4          4.7879    0.7085   -0.9390 H         1 <0>         0.0583
     25 H5          4.8056    0.6987    0.8571 H         1 <0>         0.0583
     26 H6          3.3437   -0.5050   -0.0329 H         1 <0>         0.1333
     27 H7          1.2280   -1.7618   -0.0188 H         1 <0>         0.1238
     28 H8         -0.9590    1.9119    0.0170 H         1 <0>         0.1323
     29 H9         -0.6894    3.7872   -0.8701 H         1 <0>         0.0612
     30 H10        -0.6726    3.7782    0.9261 H         1 <0>         0.0612
     31 H11        -0.9256    6.0918    0.0419 H         1 <0>         0.0784
     32 H12         0.6105    5.9106   -0.8716 H         1 <0>         0.0672
     33 H13         0.6273    5.9016    0.9246 H         1 <0>         0.0672
     34 H14        -2.1600   -0.1831    0.0209 H         1 <0>         0.4211
     35 H15        -0.6649   -2.5397   -0.9038 H         1 <0>         0.0895
     36 H16        -0.6484   -2.5494    0.8924 H         1 <0>         0.0749
     37 H17        -3.0443   -2.8548   -2.1059 H         1 <0>         0.1500
     38 H18        -5.4331   -3.7436   -1.2116 H         1 <0>         0.1502
     39 H19        -5.3051   -3.7297    2.7123 H         1 <0>         0.0778
     40 H20        -5.9025   -4.8963    1.4839 H         1 <0>         0.0889
     41 H21        -6.5234   -3.2108    1.4986 H         1 <0>         0.0889
@<TRIPOS>BOND
     1    1    2 1
     2    1   21 1
     3    1   22 1
     4    1   23 1
     5    2    3 1
     6    2   24 1
     7    2   25 1
     8    3    4 1
     9    4    9 ar
    10    4    5 ar
    11    5    6 ar
    12    5   26 1
    13    6    7 ar
    14    6   27 1
    15    7    8 ar
    16    7   13 1
    17    8    9 ar
    18    8   28 1
    19    9   10 1
    20   10   11 1
    21   11   12 1
    22   11   29 1
    23   11   30 1
    24   12   31 1
    25   12   32 1
    26   12   33 1
    27   13   14 1
    28   13   34 1
    29   14   15 1
    30   14   35 1
    31   14   36 1
    32   15   19 1
    33   15   16 2
    34   16   17 1
    35   16   37 1
    36   17   18 2
    37   17   38 1
    38   18   19 1
    39   18   20 1
    40   20   39 1
    41   20   40 1
    42   20   41 1
@<TRIPOS>MOLECULE
ZINC36569908
   47    46     0     0     0
SMALL
USER_CHARGES

@<TRIPOS>ATOM
      1 C1         -0.0187    1.5258    0.0104 C.3       1 <0>        -0.1558
      2 C2          0.0021   -0.0041    0.0020 C.3       1 <0>        -0.1198
      3 C3          0.7182   -0.4975   -1.2568 C.3       1 <0>        -0.0979
      4 C4          0.7386   -2.0043   -1.2651 C.2       1 <0>        -0.1115
      5 C5          0.2583   -2.6603   -2.2923 C.2       1 <0>        -0.1880
      6 C6          0.2788   -4.1671   -2.3006 C.3       1 <0>         0.1598
      7 H1          0.6443   -4.5308   -1.3403 H         1 <0>         0.1173
      8 C7         -1.1158   -4.6871   -2.5368 C.2       1 <0>         0.5058
      9 O1         -1.3482   -5.3823   -3.5030 O.2       1 <0>        -0.5187
     10 N1         -2.1048   -4.3796   -1.6743 N.am      1 <0>        -0.7162
     11 C8         -3.4605   -4.8851   -1.9039 C.3       1 <0>         0.1692
     12 C9         -3.4397   -6.4150   -1.9123 C.3       1 <0>        -0.1648
     13 C10        -4.3839   -4.3937   -0.7874 C.3       1 <0>        -0.1564
     14 C11        -3.9736   -4.3746   -3.2518 C.3       1 <0>        -0.1645
     15 N2          1.1630   -4.6376   -3.3697 N.am      1 <0>        -0.6016
     16 C12         2.3272   -5.4659   -3.0460 C.3       1 <0>         0.1126
     17 C13         1.9270   -6.9424   -3.0766 C.3       1 <0>        -0.1366
     18 C14         3.1428   -7.8074   -2.7386 C.3       1 <0>        -0.1498
     19 C15         0.9054   -4.3084   -4.6510 C.2       1 <0>         0.5148
     20 O2          1.6374   -4.6979   -5.5360 O.2       1 <0>        -0.5458
     21 H2          1.0039    1.9031    0.0027 H         1 <0>         0.0551
     22 H3         -0.5459    1.8868   -0.8726 H         1 <0>         0.0547
     23 H4         -0.5289    1.8773    0.9072 H         1 <0>         0.0560
     24 H5          0.5293   -0.3651    0.8851 H         1 <0>         0.0639
     25 H6         -1.0205   -0.3814    0.0098 H         1 <0>         0.0630
     26 H7          0.1910   -0.1364   -2.1398 H         1 <0>         0.0700
     27 H8          1.7408   -0.1202   -1.2645 H         1 <0>         0.0782
     28 H9          1.1493   -2.5434   -0.4242 H         1 <0>         0.1149
     29 H10        -0.1523   -2.1211   -3.1332 H         1 <0>         0.1199
     30 H11        -1.9189   -3.8236   -0.9015 H         1 <0>         0.4005
     31 H12        -3.0741   -6.7787   -0.9520 H         1 <0>         0.0538
     32 H13        -4.4484   -6.7911   -2.0832 H         1 <0>         0.0643
     33 H14        -2.7818   -6.7650   -2.7078 H         1 <0>         0.0779
     34 H15        -4.3987   -3.3039   -0.7814 H         1 <0>         0.0629
     35 H16        -5.3926   -4.7699   -0.9582 H         1 <0>         0.0751
     36 H17        -4.0184   -4.7574    0.1729 H         1 <0>         0.0623
     37 H18        -3.3157   -4.7247   -4.0473 H         1 <0>         0.0775
     38 H19        -4.9823   -4.7507   -3.4227 H         1 <0>         0.0642
     39 H20        -3.9884   -3.2847   -3.2458 H         1 <0>         0.0547
     40 H21         3.1148   -5.2877   -3.7781 H         1 <0>         0.0883
     41 H22         2.6909   -5.2087   -2.0512 H         1 <0>         0.0742
     42 H23         1.1394   -7.1206   -2.3445 H         1 <0>         0.0588
     43 H24         1.5633   -7.1997   -4.0714 H         1 <0>         0.0687
     44 H25         3.9304   -7.6292   -3.4708 H         1 <0>         0.0572
     45 H26         3.5065   -7.5502   -1.7438 H         1 <0>         0.0538
     46 H27         2.8577   -8.8593   -2.7604 H         1 <0>         0.0572
     47 H28         0.0472   -3.6978   -4.8896 H         1 <0>         0.1208
@<TRIPOS>BOND
     1    1    2 1
     2    1   21 1
     3    1   22 1
     4    1   23 1
     5    2    3 1
     6    2   24 1
     7    2   25 1
     8    3    4 1
     9    3   26 1
    10    3   27 1
    11    4    5 2
    12    4   28 1
    13    5    6 1
    14    5   29 1
    15    6    7 1
    16    6    8 1
    17    6   15 1
    18    8    9 2
    19    8   10 am
    20   10   11 1
    21   10   30 1
    22   11   12 1
    23   11   13 1
    24   11   14 1
    25   12   31 1
    26   12   32 1
    27   12   33 1
    28   13   34 1
    29   13   35 1
    30   13   36 1
    31   14   37 1
    32   14   38 1
    33   14   39 1
    34   15   16 1
    35   15   19 am
    36   16   17 1
    37   16   40 1
    38   16   41 1
    39   17   18 1
    40   17   42 1
    41   17   43 1
    42   18   44 1
    43   18   45 1
    44   18   46 1
    45   19   20 2
    46   19   47 1
@<TRIPOS>MOLECULE
ZINC42585839
   41    41     0     0     0
SMALL
USER_CHARGES

@<TRIPOS>ATOM
      1 C1         -2.8761    0.3018   -2.0368 C.3       1 <0>        -0.0845
      2 C2         -2.1345   -0.9185   -1.5553 C.2       1 <0>        -0.1686
      3 C3         -1.4054   -1.8212   -2.3420 C.2       1 <0>        -0.1473
      4 C4         -0.9048   -2.7629   -1.5104 C.2       1 <0>        -0.1386
      5 O1         -1.2872   -2.4867   -0.2581 O.3       1 <0>        -0.1452
      6 C5         -2.0351   -1.3627   -0.2544 C.2       1 <0>         0.0113
      7 C6         -2.6343   -0.7312    0.9192 C.2       1 <0>         0.5487
      8 O2         -3.2974    0.2910    0.7932 O.co2     1 <0>        -0.6341
      9 O3         -2.4735   -1.2240    2.0291 O.co2     1 <0>        -0.6565
     10 C7         -0.0536   -3.9346   -1.9269 C.3       1 <0>         0.0897
     11 N1          1.3393   -3.6948   -1.5265 N.4       1 <0>        -0.3886
     12 C8          2.1332   -4.9075   -1.7654 C.3       1 <0>        -0.0105
     13 C9          3.5452   -4.7102   -1.2101 C.3       1 <0>        -0.1182
     14 C10         3.4797   -4.5707    0.3121 C.3       1 <0>        -0.1710
     15 C11         4.4100   -5.9186   -1.5748 C.3       1 <0>        -0.1487
     16 C12         1.8913   -2.5850   -2.3150 C.3       1 <0>         0.0244
     17 C13         1.4071   -2.6971   -3.7620 C.3       1 <0>        -0.1868
     18 C14         1.4220   -1.2550   -1.7218 C.3       1 <0>        -0.2137
     19 H1         -2.2070    1.1622   -2.0240 H         1 <0>         0.0647
     20 H2         -3.2318    0.1333   -3.0533 H         1 <0>         0.0552
     21 H3         -3.7259    0.4927   -1.3814 H         1 <0>         0.0938
     22 H4         -1.2692   -1.7737   -3.4123 H         1 <0>         0.1526
     23 H5         -0.4199   -4.8400   -1.4431 H         1 <0>         0.1383
     24 H6         -0.1050   -4.0546   -3.0091 H         1 <0>         0.1531
     25 H7          1.6618   -5.7544   -1.2668 H         1 <0>         0.1310
     26 H8          2.1878   -5.1008   -2.8367 H         1 <0>         0.1296
     27 H9          3.9817   -3.8083   -1.6393 H         1 <0>         0.0926
     28 H10         4.4857   -4.4302    0.7076 H         1 <0>         0.0815
     29 H11         2.8637   -3.7098    0.5718 H         1 <0>         0.0543
     30 H12         3.0433   -5.4726    0.7412 H         1 <0>         0.0735
     31 H13         4.4566   -6.0180   -2.6592 H         1 <0>         0.0655
     32 H14         5.4159   -5.7781   -1.1792 H         1 <0>         0.0749
     33 H15         3.9735   -6.8205   -1.1456 H         1 <0>         0.0674
     34 H16         2.9801   -2.6291   -2.2917 H         1 <0>         0.1327
     35 H17         1.8950   -1.9341   -4.3685 H         1 <0>         0.1019
     36 H18         1.6542   -3.6844   -4.1523 H         1 <0>         0.0761
     37 H19         0.3273   -2.5528   -3.7960 H         1 <0>         0.0884
     38 H20         1.8445   -1.1328   -0.7245 H         1 <0>         0.0751
     39 H21         1.7532   -0.4356   -2.3597 H         1 <0>         0.0985
     40 H22         0.3338   -1.2492   -1.6586 H         1 <0>         0.1113
     41 H23         1.3716   -3.4593   -0.5459 H         1 <0>         0.4259
@<TRIPOS>BOND
     1    1    2 1
     2    1   19 1
     3    1   20 1
     4    1   21 1
     5    2    6 2
     6    2    3 1
     7    3    4 2
     8    3   22 1
     9    4    5 1
    10    4   10 1
    11    5    6 1
    12    6    7 1
    13    7    8 2
    14    7    9 1
    15   10   11 1
    16   10   23 1
    17   10   24 1
    18   11   12 1
    19   11   16 1
    20   11   41 1
    21   12   13 1
    22   12   25 1
    23   12   26 1
    24   13   14 1
    25   13   15 1
    26   13   27 1
    27   14   28 1
    28   14   29 1
    29   14   30 1
    30   15   31 1
    31   15   32 1
    32   15   33 1
    33   16   17 1
    34   16   18 1
    35   16   34 1
    36   17   35 1
    37   17   36 1
    38   17   37 1
    39   18   38 1
    40   18   39 1
    41   18   40 1
@<TRIPOS>MOLECULE
ZINC48818120
   40    41     0     0     0
SMALL
USER_CHARGES

@<TRIPOS>ATOM
      1 C1          1.5238    1.8124   -3.8233 C.3       1 <0>        -0.1543
      2 C2          1.3287    0.3529   -3.4077 C.3       1 <0>        -0.1260
      3 C3          2.0990   -0.5576   -4.3662 C.3       1 <0>        -0.1194
      4 C4          1.9039   -2.0171   -3.9506 C.3       1 <0>        -0.1167
      5 C5          2.6742   -2.9276   -4.9091 C.3       1 <0>        -0.0234
      6 C6          2.4821   -4.3652   -4.4997 C.2       1 <0>         0.0708
      7 N1          1.5641   -5.2359   -4.8698 N.2       1 <0>        -0.2549
      8 N2          1.5427   -6.4174   -4.4291 N.2       1 <0>        -0.2836
      9 C7          2.4455   -6.8574   -3.5633 C.2       1 <0>         0.2968
     10 S1          3.4401   -5.3800   -3.3781 S.3       1 <0>        -0.0370
     11 N3          2.5830   -8.1077   -2.9727 N.am      1 <0>        -0.6102
     12 C8          1.7089   -9.0909   -3.2652 C.2       1 <0>         0.5437
     13 O1          0.7997   -8.8839   -4.0461 O.2       1 <0>        -0.4663
     14 C9          1.8544  -10.4140   -2.6402 C.2       1 <0>        -0.2397
     15 C10         0.9241  -11.3456   -2.8308 C.2       1 <0>         0.0286
     16 C11        -0.3512  -10.9998   -3.5555 C.3       1 <0>        -0.1364
     17 C12         1.1455  -12.7467   -2.3221 C.3       1 <0>        -0.1426
     18 C13         0.1389  -13.8189   -2.7441 C.3       1 <0>        -0.1686
     19 C14         0.1422  -13.2962   -1.3061 C.3       1 <0>        -0.1625
     20 H1          2.5843    2.0616   -3.7878 H         1 <0>         0.0539
     21 H2          1.1509    1.9542   -4.8376 H         1 <0>         0.0546
     22 H3          0.9750    2.4610   -3.1404 H         1 <0>         0.0540
     23 H4          1.7016    0.2110   -2.3933 H         1 <0>         0.0613
     24 H5          0.2682    0.1036   -3.4432 H         1 <0>         0.0625
     25 H6          1.7261   -0.4157   -5.3805 H         1 <0>         0.0675
     26 H7          3.1595   -0.3083   -4.3307 H         1 <0>         0.0656
     27 H8          2.2768   -2.1590   -2.9362 H         1 <0>         0.0671
     28 H9          0.8434   -2.2664   -3.9861 H         1 <0>         0.0728
     29 H10         2.3013   -2.7857   -5.9234 H         1 <0>         0.1077
     30 H11         3.7347   -2.6783   -4.8736 H         1 <0>         0.0960
     31 H12         3.3082   -8.2728   -2.3499 H         1 <0>         0.4292
     32 H13         2.7165  -10.6294   -2.0264 H         1 <0>         0.1355
     33 H14        -0.1908  -11.0783   -4.6307 H         1 <0>         0.0876
     34 H15        -1.1389  -11.6903   -3.2542 H         1 <0>         0.0634
     35 H16        -0.6462   -9.9807   -3.3056 H         1 <0>         0.0926
     36 H17         2.1874  -13.0486   -2.2144 H         1 <0>         0.1204
     37 H18        -0.6836  -13.5107   -3.3896 H         1 <0>         0.1040
     38 H19         0.5183  -14.8264   -2.9143 H         1 <0>         0.1029
     39 H20         0.5238  -13.9600   -0.5303 H         1 <0>         0.1033
     40 H21        -0.6781  -12.6443   -1.0056 H         1 <0>         0.0995
@<TRIPOS>BOND
     1    1    2 1
     2    1   20 1
     3    1   21 1
     4    1   22 1
     5    2    3 1
     6    2   23 1
     7    2   24 1
     8    3    4 1
     9    3   25 1
    10    3   26 1
    11    4    5 1
    12    4   27 1
    13    4   28 1
    14    5    6 1
    15    5   29 1
    16    5   30 1
    17    6   10 1
    18    6    7 2
    19    7    8 1
    20    8    9 2
    21    9   10 1
    22    9   11 1
    23   11   12 am
    24   11   31 1
    25   12   13 2
    26   12   14 1
    27   14   15 2
    28   14   32 1
    29   15   16 1
    30   15   17 1
    31   16   33 1
    32   16   34 1
    33   16   35 1
    34   17   19 1
    35   17   18 1
    36   17   36 1
    37   18   19 1
    38   18   37 1
    39   18   38 1
    40   19   39 1
    41   19   40 1
@<TRIPOS>MOLECULE
ZINC59916023
   43    44     0     0     0
SMALL
USER_CHARGES

@<TRIPOS>ATOM
      1 C1         -0.0187    1.5258    0.0104 C.3       1 <0>        -0.1735
      2 C2          0.0021   -0.0041    0.0020 C.3       1 <0>         0.1157
      3 N1          0.6878   -0.4765   -1.2033 N.pl3     1 <0>        -0.6227
      4 C3          2.1353   -0.7012   -1.1821 C.3       1 <0>         0.1151
      5 C4          2.4212   -2.1448   -0.7635 C.3       1 <0>        -0.1734
      6 C5         -0.0374   -0.7124   -2.3710 C.ar      1 <0>         0.2379
      7 C6         -1.4108   -0.4931   -2.3909 C.ar      1 <0>        -0.2052
      8 C7         -2.1304   -0.7250   -3.5423 C.ar      1 <0>        -0.0376
      9 C8         -1.4787   -1.1812   -4.6916 C.ar      1 <0>        -0.1240
     10 C9         -0.0985   -1.4004   -4.6678 C.ar      1 <0>        -0.0254
     11 C10         0.6153   -1.1610   -3.5144 C.ar      1 <0>        -0.2054
     12 C11        -2.2453   -1.4309   -5.9255 C.2       1 <0>         0.1243
     13 N2         -1.6385   -1.8546   -6.9919 N.2       1 <0>        -0.2461
     14 N3         -2.3671   -2.0920   -8.1648 N.am      1 <0>        -0.5855
     15 C12        -1.7371   -2.5319   -9.2721 C.2       1 <0>         0.5389
     16 O1         -0.5392   -2.7223   -9.2532 O.2       1 <0>        -0.5036
     17 C13        -2.5209   -2.7872  -10.5337 C.3       1 <0>        -0.1353
     18 C14        -3.2119   -4.1608  -10.5622 C.3       1 <0>        -0.1250
     19 C15        -2.8107   -4.2441  -12.0445 C.3       1 <0>        -0.1415
     20 C16        -1.6576   -3.2848  -11.7050 C.3       1 <0>        -0.1170
     21 H1          1.0039    1.9031    0.0027 H         1 <0>         0.0563
     22 H2         -0.5459    1.8868   -0.8726 H         1 <0>         0.0595
     23 H3         -0.5289    1.8773    0.9072 H         1 <0>         0.0651
     24 H4          0.5293   -0.3651    0.8851 H         1 <0>         0.0746
     25 H5         -1.0205   -0.3814    0.0098 H         1 <0>         0.0773
     26 H6          2.5453   -0.5232   -2.1762 H         1 <0>         0.0778
     27 H7          2.5986   -0.0180   -0.4703 H         1 <0>         0.0748
     28 H8          1.9579   -2.8280   -1.4752 H         1 <0>         0.0597
     29 H9          3.4982   -2.3119   -0.7477 H         1 <0>         0.0654
     30 H10         2.0113   -2.3228    0.2307 H         1 <0>         0.0561
     31 H11        -1.9137   -0.1409   -1.5024 H         1 <0>         0.1265
     32 H12        -3.1968   -0.5548   -3.5570 H         1 <0>         0.1260
     33 H13         0.4083   -1.7529   -5.5540 H         1 <0>         0.1326
     34 H14         1.6825   -1.3259   -3.4965 H         1 <0>         0.1256
     35 H15        -3.3117   -1.2614   -5.9424 H         1 <0>         0.1148
     36 H16        -3.3250   -1.9398   -8.1799 H         1 <0>         0.3842
     37 H17        -3.1797   -1.9599  -10.7974 H         1 <0>         0.1164
     38 H18        -2.7248   -4.9077   -9.9354 H         1 <0>         0.0864
     39 H19        -4.2891   -4.1110  -10.4036 H         1 <0>         0.0770
     40 H20        -2.4778   -5.2355  -12.3516 H         1 <0>         0.0754
     41 H21        -3.5498   -3.8160  -12.7216 H         1 <0>         0.0855
     42 H22        -1.4802   -2.5279  -12.4690 H         1 <0>         0.0753
     43 H23        -0.7457   -3.7923  -11.3906 H         1 <0>         0.0968
@<TRIPOS>BOND
     1    1    2 1
     2    1   21 1
     3    1   22 1
     4    1   23 1
     5    2    3 1
     6    2   24 1
     7    2   25 1
     8    3    4 1
     9    3    6 1
    10    4    5 1
    11    4   26 1
    12    4   27 1
    13    5   28 1
    14    5   29 1
    15    5   30 1
    16    6   11 ar
    17    6    7 ar
    18    7    8 ar
    19    7   31 1
    20    8    9 ar
    21    8   32 1
    22    9   10 ar
    23    9   12 1
    24   10   11 ar
    25   10   33 1
    26   11   34 1
    27   12   13 2
    28   12   35 1
    29   13   14 1
    30   14   15 am
    31   14   36 1
    32   15   16 2
    33   15   17 1
    34   17   20 1
    35   17   18 1
    36   17   37 1
    37   18   19 1
    38   18   38 1
    39   18   39 1
    40   19   20 1
    41   19   40 1
    42   19   41 1
    43   20   42 1
    44   20   43 1
@<TRIPOS>MOLECULE
ZINC20551785
   46    47     0     0     0
SMALL
USER_CHARGES
2-amino-5-chloro-N-[3-[(2R)-2-methyl-1-piperidyl]propyl]benzamide
@<TRIPOS>ATOM
      1 C1         -3.5866    3.2834    3.2174 C.3       1 <0>        -0.1875
      2 C2         -2.7448    2.8423    2.0184 C.3       1 <0>         0.0344
      3 H1         -2.7987    1.7513    1.8885 H         1 <0>         0.1305
      4 C3         -1.2940    3.2893    2.2219 C.3       1 <0>        -0.1405
      5 C4         -0.4609    2.8635    1.0097 C.3       1 <0>        -0.1411
      6 C5         -1.0676    3.4722   -0.2576 C.3       1 <0>        -0.1463
      7 C6         -2.5237    3.0199   -0.3883 C.3       1 <0>        -0.0075
      8 N1         -3.2798    3.4518    0.7942 N.4       1 <0>        -0.3972
      9 C7         -4.7106    3.1565    0.6410 C.3       1 <0>        -0.0125
     10 C8         -5.3085    4.0715   -0.4296 C.3       1 <0>        -0.1610
     11 C9         -6.7987    3.7639   -0.5892 C.3       1 <0>         0.1260
     12 N2         -7.3712    4.6401   -1.6143 N.am      1 <0>        -0.7422
     13 C10        -8.6791    4.5474   -1.9262 C.2       1 <0>         0.5885
     14 O1         -9.3840    3.7365   -1.3567 O.2       1 <0>        -0.5470
     15 C11        -9.2552    5.4292   -2.9578 C.ar      1 <0>        -0.2442
     16 C12        -8.4279    6.2747   -3.7017 C.ar      1 <0>        -0.0204
     17 C13        -8.9729    7.0968   -4.6648 C.ar      1 <0>        -0.1151
     18 C14       -10.3398    7.0894   -4.9000 C.ar      1 <0>        -0.0220
     19 C15       -11.1690    6.2603   -4.1731 C.ar      1 <0>        -0.2032
     20 C16       -10.6370    5.4203   -3.2026 C.ar      1 <0>         0.3017
     21 N3        -11.4696    4.5801   -2.4739 N.pl3     1 <0>        -0.8697
     22 Cl1        -7.9433    8.1460   -5.5882 Cl        1 <0>        -0.0709
     23 H2         -3.1859    2.8269    4.1345 H         1 <0>         0.1070
     24 H3         -4.6283    2.9613    3.0724 H         1 <0>         0.0834
     25 H4         -3.5507    4.3791    3.3073 H         1 <0>         0.0830
     26 H5         -1.2589    4.3836    2.3278 H         1 <0>         0.0894
     27 H6         -0.8897    2.8198    3.1308 H         1 <0>         0.1120
     28 H7          0.5727    3.2196    1.1318 H         1 <0>         0.0953
     29 H8         -0.4637    1.7664    0.9299 H         1 <0>         0.0812
     30 H9         -1.0271    4.5695   -0.1929 H         1 <0>         0.0883
     31 H10        -0.4970    3.1354   -1.1356 H         1 <0>         0.1125
     32 H11        -2.9671    3.4674   -1.2900 H         1 <0>         0.1306
     33 H12        -2.5614    1.9233   -0.4667 H         1 <0>         0.1260
     34 H13        -4.8380    2.1065    0.3387 H         1 <0>         0.1312
     35 H14        -5.2248    3.3274    1.5983 H         1 <0>         0.1401
     36 H15        -5.1812    5.1215   -0.1273 H         1 <0>         0.0959
     37 H16        -4.7943    3.9006   -1.3869 H         1 <0>         0.0943
     38 H17        -6.9260    2.7140   -0.8915 H         1 <0>         0.0775
     39 H18        -7.3130    3.9348    0.3681 H         1 <0>         0.0780
     40 H19        -6.7336    5.3737   -2.1294 H         1 <0>         0.4249
     41 H20        -7.3629    6.2839   -3.5226 H         1 <0>         0.1275
     42 H21       -10.7577    7.7369   -5.6566 H         1 <0>         0.1388
     43 H22       -12.2324    6.2607   -4.3620 H         1 <0>         0.1386
     44 H23       -12.5523    4.5753   -2.6680 H         1 <0>         0.4166
     45 H24       -11.0461    3.9197   -1.7029 H         1 <0>         0.4388
     46 H25        -3.1659    4.5421    0.8851 H         1 <0>         0.4360
@<TRIPOS>BOND
     1    1    2 1
     2    1   23 1
     3    1   24 1
     4    1   25 1
     5    2    3 1
     6    2    8 1
     7    2    4 1
     8    4    5 1
     9    4   26 1
    10    4   27 1
    11    5    6 1
    12    5   28 1
    13    5   29 1
    14    6    7 1
    15    6   30 1
    16    6   31 1
    17    7    8 1
    18    7   32 1
    19    7   33 1
    20    8    9 1
    21    8   46 1
    22    9   10 1
    23    9   34 1
    24    9   35 1
    25   10   11 1
    26   10   36 1
    27   10   37 1
    28   11   12 1
    29   11   38 1
    30   11   39 1
    31   12   13 am
    32   12   40 1
    33   13   14 2
    34   13   15 1
    35   15   20 ar
    36   15   16 ar
    37   16   17 ar
    38   16   41 1
    39   17   18 ar
    40   17   22 1
    41   18   19 ar
    42   18   42 1
    43   19   20 ar
    44   19   43 1
    45   20   21 1
    46   21   44 1
    47   21   45 1
@<TRIPOS>MOLECULE
ZINC37572872
   37    38     0     0     0
SMALL
USER_CHARGES

@<TRIPOS>ATOM
      1 C1         -2.9097   -0.9977   -8.2330 C.3       1 <0>        -0.1476
      2 S1         -1.4047   -1.4354   -9.1462 S.3       1 <0>        -0.1035
      3 C2         -0.1408   -1.4171   -7.9186 C.ar      1 <0>        -0.0874
      4 C3         -0.4569   -1.1131   -6.6005 C.ar      1 <0>        -0.1199
      5 C4          0.5336   -1.0988   -5.6388 C.ar      1 <0>        -0.1060
      6 C5          1.8460   -1.3878   -5.9892 C.ar      1 <0>         0.1275
      7 C6          2.1623   -1.6917   -7.3068 C.ar      1 <0>        -0.1297
      8 C7          1.1710   -1.7122   -8.2677 C.ar      1 <0>        -0.0762
      9 N1          2.8504   -1.3723   -5.0140 N.pl3     1 <0>        -1.0521
     10 S2          3.9466   -2.6110   -4.9346 S.o2      1 <0>         2.6836
     11 O1          4.4905   -2.7563   -6.2393 O.2       1 <0>        -0.9336
     12 O2          4.7576   -2.3632   -3.7944 O.2       1 <0>        -0.9361
     13 C8          3.0427   -4.0858   -4.5988 C.ar      1 <0>        -0.6444
     14 C9          2.7197   -4.4170   -3.2961 C.ar      1 <0>        -0.0129
     15 C10         2.0106   -5.5740   -3.0326 C.ar      1 <0>        -0.1132
     16 C11         1.6242   -6.3996   -4.0718 C.ar      1 <0>        -0.1168
     17 C12         1.9464   -6.0680   -5.3746 C.ar      1 <0>        -0.1114
     18 C13         2.6518   -4.9088   -5.6384 C.ar      1 <0>        -0.0100
     19 C14         0.8520   -7.6614   -3.7845 C.3       1 <0>         0.0412
     20 N2         -0.5877   -7.3702   -3.8062 N.4       1 <0>        -0.6364
     21 H1         -3.0870   -1.7349   -7.4500 H         1 <0>         0.0821
     22 H2         -2.7882   -0.0122   -7.7834 H         1 <0>         0.0872
     23 H3         -3.7583   -0.9828   -8.9170 H         1 <0>         0.1139
     24 H4         -1.4774   -0.8877   -6.3281 H         1 <0>         0.1302
     25 H5          0.2879   -0.8625   -4.6140 H         1 <0>         0.1325
     26 H6          3.1830   -1.9161   -7.5791 H         1 <0>         0.1624
     27 H7          1.4163   -1.9530   -9.2916 H         1 <0>         0.1398
     28 H8          2.9042   -0.6360   -4.3848 H         1 <0>         0.4320
     29 H9          3.0216   -3.7719   -2.4842 H         1 <0>         0.1528
     30 H10         1.7588   -5.8330   -2.0149 H         1 <0>         0.1446
     31 H11         1.6448   -6.7132   -6.1864 H         1 <0>         0.1451
     32 H12         2.9004   -4.6478   -6.6565 H         1 <0>         0.1557
     33 H13         1.0828   -8.4093   -4.5431 H         1 <0>         0.1466
     34 H14         1.1308   -8.0423   -2.8020 H         1 <0>         0.1464
     35 H15        -1.1047   -8.2150   -3.6139 H         1 <0>         0.4415
     36 H16        -0.8014   -6.6778   -3.1041 H         1 <0>         0.4359
     37 H17        -0.8458   -7.0176   -4.7157 H         1 <0>         0.4363
@<TRIPOS>BOND
     1    1    2 1
     2    1   21 1
     3    1   22 1
     4    1   23 1
     5    2    3 1
     6    3    8 ar
     7    3    4 ar
     8    4    5 ar
     9    4   24 1
    10    5    6 ar
    11    5   25 1
    12    6    7 ar
    13    6    9 1
    14    7    8 ar
    15    7   26 1
    16    8   27 1
    17    9   10 1
    18    9   28 1
    19   10   11 2
    20   10   12 2
    21   10   13 1
    22   13   18 ar
    23   13   14 ar
    24   14   15 ar
    25   14   29 1
    26   15   16 ar
    27   15   30 1
    28   16   17 ar
    29   16   19 1
    30   17   18 ar
    31   17   31 1
    32   18   32 1
    33   19   20 1
    34   19   33 1
    35   19   34 1
    36   20   35 1
    37   20   36 1
    38   20   37 1
@<TRIPOS>MOLECULE
ZINC40921307
   44    44     0     0     0
SMALL
USER_CHARGES

@<TRIPOS>ATOM
      1 C1          0.0640    0.6607    0.5664 C.3       1 <0>        -0.1627
      2 C2          0.0705   -0.8431    0.2845 C.3       1 <0>         0.1913
      3 H1         -0.9553   -1.2084    0.2376 H         1 <0>         0.1064
      4 C3          0.7576   -1.1046   -1.0310 C.ar      1 <0>        -0.1489
      5 C4          2.1385   -1.1263   -1.0961 C.ar      1 <0>        -0.0789
      6 C5          2.7708   -1.3654   -2.3009 C.ar      1 <0>        -0.2075
      7 C6          2.0188   -1.5843   -3.4460 C.ar      1 <0>         0.1485
      8 C7          0.6334   -1.5625   -3.3780 C.ar      1 <0>        -0.1437
      9 C8          0.0059   -1.3281   -2.1698 C.ar      1 <0>        -0.0594
     10 O1          2.6384   -1.8192   -4.6325 O.3       1 <0>        -0.3057
     11 C9          4.0631   -1.7100   -4.6533 C.3       1 <0>         0.0771
     12 C10         4.6827   -3.0336   -4.2006 C.3       1 <0>        -0.1815
     13 C11         4.5293   -1.3883   -6.0746 C.3       1 <0>        -0.1532
     14 N1          0.7877   -1.5378    1.3566 N.am      1 <0>        -0.7214
     15 C12         0.1400   -1.8834    2.4868 C.2       1 <0>         0.5006
     16 O2         -1.0366   -1.6193    2.6164 O.2       1 <0>        -0.4709
     17 C13         0.8777   -2.5980    3.5896 C.3       1 <0>         0.0466
     18 C14         0.1802   -2.3324    4.9252 C.3       1 <0>        -0.1672
     19 C15         0.8843   -4.1018    3.3078 C.3       1 <0>        -0.1762
     20 N2          2.2603   -2.1056    3.6529 N.4       1 <0>        -0.6339
     21 H2          1.0899    1.0260    0.6133 H         1 <0>         0.0613
     22 H3         -0.4696    1.1775   -0.2313 H         1 <0>         0.0812
     23 H4         -0.4330    0.8498    1.5179 H         1 <0>         0.0655
     24 H5          2.7234   -0.9559   -0.2043 H         1 <0>         0.1136
     25 H6          3.8495   -1.3815   -2.3513 H         1 <0>         0.1344
     26 H7          0.0458   -1.7325   -4.2681 H         1 <0>         0.1388
     27 H8         -1.0726   -1.3154   -2.1154 H         1 <0>         0.1352
     28 H9          4.3762   -0.9129   -3.9790 H         1 <0>         0.0739
     29 H10         4.3506   -3.2628   -3.1881 H         1 <0>         0.0590
     30 H11         4.3696   -3.8308   -4.8749 H         1 <0>         0.0715
     31 H12         5.7694   -2.9503   -4.2164 H         1 <0>         0.0762
     32 H13         4.0879   -0.4453   -6.3970 H         1 <0>         0.0678
     33 H14         5.6160   -1.3050   -6.0904 H         1 <0>         0.0812
     34 H15         4.2162   -2.1854   -6.7488 H         1 <0>         0.0707
     35 H16         1.7288   -1.7490    1.2530 H         1 <0>         0.3898
     36 H17        -0.8457   -2.6978    4.8783 H         1 <0>         0.1192
     37 H18         0.7138   -2.8493    5.7229 H         1 <0>         0.0952
     38 H19         0.1755   -1.2611    5.1260 H         1 <0>         0.0880
     39 H20         1.3812   -4.2909    2.3563 H         1 <0>         0.0875
     40 H21         1.4179   -4.6186    4.1054 H         1 <0>         0.1006
     41 H22        -0.1416   -4.4671    3.2608 H         1 <0>         0.1162
     42 H23         2.2560   -1.1139    3.8388 H         1 <0>         0.4401
     43 H24         2.7543   -2.5840    4.3913 H         1 <0>         0.4442
     44 H25         2.7203   -2.2807    2.7721 H         1 <0>         0.4298
@<TRIPOS>BOND
     1    1    2 1
     2    1   21 1
     3    1   22 1
     4    1   23 1
     5    2    3 1
     6    2    4 1
     7    2   14 1
     8    4    9 ar
     9    4    5 ar
    10    5    6 ar
    11    5   24 1
    12    6    7 ar
    13    6   25 1
    14    7    8 ar
    15    7   10 1
    16    8    9 ar
    17    8   26 1
    18    9   27 1
    19   10   11 1
    20   11   12 1
    21   11   13 1
    22   11   28 1
    23   12   29 1
    24   12   30 1
    25   12   31 1
    26   13   32 1
    27   13   33 1
    28   13   34 1
    29   14   15 am
    30   14   35 1
    31   15   16 2
    32   15   17 1
    33   17   18 1
    34   17   19 1
    35   17   20 1
    36   18   36 1
    37   18   37 1
    38   18   38 1
    39   19   39 1
    40   19   40 1
    41   19   41 1
    42   20   42 1
    43   20   43 1
    44   20   44 1
@<TRIPOS>MOLECULE
ZINC50460831
   40    42     0     0     0
SMALL
USER_CHARGES

@<TRIPOS>ATOM
      1 C1         -0.0173    1.4248    0.0099 C.3       1 <0>         0.0240
      2 O1          0.0021   -0.0041    0.0020 O.3       1 <0>        -0.3136
      3 C2          0.6058   -0.6071   -1.0557 C.ar      1 <0>         0.1417
      4 C3          1.1730    0.1607   -2.0624 C.ar      1 <0>        -0.2033
      5 C4          1.7865   -0.4547   -3.1363 C.ar      1 <0>        -0.0602
      6 C5          1.8352   -1.8346   -3.2086 C.ar      1 <0>        -0.1458
      7 C6          1.2702   -2.6021   -2.2068 C.ar      1 <0>        -0.0706
      8 C7          0.6609   -1.9915   -1.1277 C.ar      1 <0>        -0.1475
      9 C8          2.5046   -2.5033   -4.3815 C.3       1 <0>         0.2256
     10 H1          3.1796   -1.7975   -4.8655 H         1 <0>         0.1058
     11 C9          1.4419   -2.9609   -5.3825 C.3       1 <0>        -0.1656
     12 C10         1.2286   -4.4670   -5.5474 C.3       1 <0>        -0.1751
     13 C11         1.9239   -3.6674   -6.6511 C.3       1 <0>        -0.1813
     14 N1          3.2659   -3.6640   -3.9127 N.am      1 <0>        -0.6913
     15 C12         4.3170   -4.1135   -4.6265 C.2       1 <0>         0.5452
     16 O2          4.6327   -3.5571   -5.6569 O.2       1 <0>        -0.5658
     17 C13         5.1000   -5.3074   -4.1443 C.3       1 <0>        -0.1767
     18 H2          4.5193   -6.0752   -3.6333 H         1 <0>         0.1628
     19 C14         6.5312   -5.0651   -3.6607 C.3       1 <0>        -0.1241
     20 C15         6.2834   -5.7677   -4.9979 C.3       1 <0>        -0.0365
     21 H3          6.4815   -6.8383   -5.0481 H         1 <0>         0.1909
     22 N2          6.5694   -5.0120   -6.2247 N.4       1 <0>        -0.5998
     23 H4          1.0053    1.8021    0.0021 H         1 <0>         0.0585
     24 H5         -0.5445    1.7859   -0.8732 H         1 <0>         0.0593
     25 H6         -0.5275    1.7763    0.9067 H         1 <0>         0.1064
     26 H7          1.1347    1.2385   -2.0068 H         1 <0>         0.1347
     27 H8          2.2283    0.1425   -3.9203 H         1 <0>         0.1288
     28 H9          1.3092   -3.6798   -2.2657 H         1 <0>         0.1250
     29 H10         0.2237   -2.5913   -0.3432 H         1 <0>         0.1363
     30 H11         0.5671   -2.3162   -5.4670 H         1 <0>         0.1184
     31 H12         1.8455   -5.1318   -4.9428 H         1 <0>         0.0880
     32 H13         0.2133   -4.8134   -5.7403 H         1 <0>         0.0977
     33 H14         1.3660   -3.4878   -7.5701 H         1 <0>         0.0951
     34 H15         2.9982   -3.8063   -6.7726 H         1 <0>         0.1087
     35 H16         3.0133   -4.1089   -3.0886 H         1 <0>         0.4115
     36 H17         6.9064   -4.0421   -3.6913 H         1 <0>         0.1286
     37 H18         6.8922   -5.6738   -2.8317 H         1 <0>         0.1483
     38 H19         6.7682   -4.0512   -5.9893 H         1 <0>         0.4376
     39 H20         7.3680   -5.4164   -6.6904 H         1 <0>         0.4361
     40 H21         5.7684   -5.0494   -6.8372 H         1 <0>         0.4423
@<TRIPOS>BOND
     1    1    2 1
     2    1   23 1
     3    1   24 1
     4    1   25 1
     5    2    3 1
     6    3    8 ar
     7    3    4 ar
     8    4    5 ar
     9    4   26 1
    10    5    6 ar
    11    5   27 1
    12    6    7 ar
    13    6    9 1
    14    7    8 ar
    15    7   28 1
    16    8   29 1
    17    9   10 1
    18    9   11 1
    19    9   14 1
    20   11   13 1
    21   11   12 1
    22   11   30 1
    23   12   13 1
    24   12   31 1
    25   12   32 1
    26   13   33 1
    27   13   34 1
    28   14   15 am
    29   14   35 1
    30   15   16 2
    31   15   17 1
    32   17   18 1
    33   17   20 1
    34   17   19 1
    35   19   20 1
    36   19   36 1
    37   19   37 1
    38   20   21 1
    39   20   22 1
    40   22   38 1
    41   22   39 1
    42   22   40 1
@<TRIPOS>MOLECULE
ZINC50089134
   55    56     0     0     0
SMALL
USER_CHARGES

@<TRIPOS>ATOM
      1 C1          0.3002    1.4753   -0.2167 C.3       1 <0>        -0.1545
      2 C2          0.1755   -0.0468   -0.1234 C.3       1 <0>        -0.0832
      3 H1          0.7016   -0.5064   -0.9601 H         1 <0>         0.0944
      4 C3         -1.3020   -0.4414   -0.1712 C.3       1 <0>        -0.1158
      5 C4         -1.4267   -1.9634   -0.0779 C.3       1 <0>        -0.1144
      6 C5         -0.8123   -2.4457    1.2377 C.3       1 <0>        -0.1228
      7 C6          0.6651   -2.0512    1.2856 C.3       1 <0>         0.0932
      8 C7          0.7898   -0.5291    1.1923 C.3       1 <0>        -0.1194
      9 C8          1.2794   -2.5335    2.6012 C.3       1 <0>        -0.0507
     10 N1          0.5720   -1.9121    3.7288 N.4       1 <0>        -0.6333
     11 N2          1.3742   -2.6706    0.1580 N.3       1 <0>        -0.4836
     12 C9          2.7653   -2.2035    0.0902 C.3       1 <0>         0.0066
     13 C10         1.3144   -4.1361    0.2396 C.3       1 <0>         0.0177
     14 C11         1.6829   -4.7291   -1.0959 C.2       1 <0>         0.5115
     15 O1          1.9674   -4.0024   -2.0243 O.2       1 <0>        -0.5104
     16 N3          1.6964   -6.0669   -1.2587 N.am      1 <0>        -0.7275
     17 C12         2.0547   -6.6433   -2.5570 C.3       1 <0>         0.1467
     18 C13         0.8148   -6.6942   -3.4520 C.3       1 <0>        -0.1269
     19 C14         1.1890   -7.2962   -4.8079 C.3       1 <0>        -0.1191
     20 C15         1.7301   -8.7129   -4.6051 C.3       1 <0>        -0.1240
     21 C16         2.9699   -8.6620   -3.7100 C.3       1 <0>        -0.1178
     22 C17         2.5957   -8.0600   -2.3541 C.3       1 <0>        -0.1258
     23 H2          1.3528    1.7564   -0.1826 H         1 <0>         0.0564
     24 H3         -0.1374    1.8189   -1.1540 H         1 <0>         0.0633
     25 H4         -0.2259    1.9349    0.6200 H         1 <0>         0.0528
     26 H5         -1.8281    0.0183    0.6655 H         1 <0>         0.0580
     27 H6         -1.7396   -0.0977   -1.1085 H         1 <0>         0.0718
     28 H7         -2.4792   -2.2445   -0.1120 H         1 <0>         0.0680
     29 H8         -0.9005   -2.4230   -0.9146 H         1 <0>         0.0855
     30 H9         -1.3384   -1.9861    2.0744 H         1 <0>         0.0636
     31 H10        -0.9012   -3.5301    1.3042 H         1 <0>         0.0774
     32 H11         1.8424   -0.2480    1.2264 H         1 <0>         0.0828
     33 H12         0.2637   -0.0695    2.0290 H         1 <0>         0.0629
     34 H13         1.1889   -3.6177    2.6685 H         1 <0>         0.1346
     35 H14         2.3325   -2.2541    2.6345 H         1 <0>         0.1377
     36 H15         1.0108   -2.1882    4.5944 H         1 <0>         0.4375
     37 H16         0.6104   -0.9080    3.6376 H         1 <0>         0.4344
     38 H17         3.2817   -2.4648    1.0138 H         1 <0>         0.0268
     39 H18         3.2671   -2.6775   -0.7533 H         1 <0>         0.0947
     40 H19         2.7792   -1.1214   -0.0401 H         1 <0>         0.0852
     41 H20         2.0141   -4.4866    0.9983 H         1 <0>         0.0678
     42 H21         0.3037   -4.4442    0.5074 H         1 <0>         0.1113
     43 H22         1.4689   -6.6481   -0.5161 H         1 <0>         0.3978
     44 H23         2.8191   -6.0267   -3.0298 H         1 <0>         0.0895
     45 H24         0.0504   -7.3108   -2.9792 H         1 <0>         0.0629
     46 H25         0.4294   -5.6849   -3.5965 H         1 <0>         0.0664
     47 H26         0.3057   -7.3324   -5.4456 H         1 <0>         0.0675
     48 H27         1.9534   -6.6796   -5.2807 H         1 <0>         0.0654
     49 H28         0.9657   -9.3295   -4.1323 H         1 <0>         0.0633
     50 H29         1.9966   -9.1418   -5.5711 H         1 <0>         0.0675
     51 H30         3.3553   -9.6713   -3.5656 H         1 <0>         0.0701
     52 H31         3.7343   -8.0454   -4.1829 H         1 <0>         0.0663
     53 H32         3.4790   -8.0238   -1.7165 H         1 <0>         0.0675
     54 H33         1.8313   -8.6767   -1.8813 H         1 <0>         0.0682
     55 H34        -0.3909   -2.2133    3.7288 H         1 <0>         0.4343
@<TRIPOS>BOND
     1    1    2 1
     2    1   23 1
     3    1   24 1
     4    1   25 1
     5    2    3 1
     6    2    8 1
     7    2    4 1
     8    4    5 1
     9    4   26 1
    10    4   27 1
    11    5    6 1
    12    5   28 1
    13    5   29 1
    14    6    7 1
    15    6   30 1
    16    6   31 1
    17    7    8 1
    18    7    9 1
    19    7   11 1
    20    8   32 1
    21    8   33 1
    22    9   10 1
    23    9   34 1
    24    9   35 1
    25   10   36 1
    26   10   37 1
    27   10   55 1
    28   11   12 1
    29   11   13 1
    30   12   38 1
    31   12   39 1
    32   12   40 1
    33   13   14 1
    34   13   41 1
    35   13   42 1
    36   14   15 2
    37   14   16 am
    38   16   17 1
    39   16   43 1
    40   17   22 1
    41   17   18 1
    42   17   44 1
    43   18   19 1
    44   18   45 1
    45   18   46 1
    46   19   20 1
    47   19   47 1
    48   19   48 1
    49   20   21 1
    50   20   49 1
    51   20   50 1
    52   21   22 1
    53   21   51 1
    54   21   52 1
    55   22   53 1
    56   22   54 1
@<TRIPOS>MOLECULE
ZINC14569409
   42    42     0     0     0
SMALL
USER_CHARGES
3-allyl-1-[[2-(2-isopropylphenoxy)acetyl]amino]thiourea
@<TRIPOS>ATOM
      1 C1         -3.3134   -0.3567   -1.2181 C.3       1 <0>        -0.1428
      2 C2         -2.5051    0.0187    0.0255 C.3       1 <0>        -0.0562
      3 C3         -3.2901   -0.3692    1.2802 C.3       1 <0>        -0.1428
      4 C4         -1.1889   -0.7151    0.0096 C.ar      1 <0>        -0.0955
      5 C5         -1.1675   -2.0965    0.0020 C.ar      1 <0>        -0.0771
      6 C6          0.0396   -2.7702   -0.0131 C.ar      1 <0>        -0.1487
      7 C7          1.2283   -2.0637   -0.0211 C.ar      1 <0>        -0.0849
      8 C8          1.2122   -0.6825   -0.0189 C.ar      1 <0>        -0.2072
      9 C9          0.0021   -0.0041    0.0020 C.ar      1 <0>         0.1235
     10 O1         -0.0164    1.3548    0.0095 O.3       1 <0>        -0.2855
     11 C10         1.2479    2.0208    0.0010 C.3       1 <0>         0.0536
     12 C11         1.0302    3.5120    0.0111 C.2       1 <0>         0.5217
     13 O2         -0.0966    3.9602    0.0242 O.2       1 <0>        -0.4898
     14 N1          2.0878    4.3474    0.0055 N.am      1 <0>        -0.5482
     15 N2          1.8854    5.7337    0.0148 N.pl3     1 <0>        -0.4682
     16 C12         2.9430    6.5692    0.0092 C.2       1 <0>         0.5586
     17 S1          2.6957    8.2632    0.0207 S.2       1 <0>        -0.5814
     18 N3          4.1952    6.0710   -0.0054 N.pl3     1 <0>        -0.6808
     19 C13         5.3448    6.9792   -0.0115 C.3       1 <0>         0.1508
     20 C14         6.6196    6.1757   -0.0280 C.2       1 <0>        -0.1945
     21 C15         7.5118    6.3820   -0.9648 C.2       1 <0>        -0.1463
     22 H1         -3.4965   -1.4312   -1.2218 H         1 <0>         0.0555
     23 H2         -4.2654    0.1740   -1.2066 H         1 <0>         0.0597
     24 H3         -2.7542   -0.0804   -2.1120 H         1 <0>         0.0545
     25 H4         -2.3221    1.0932    0.0292 H         1 <0>         0.0884
     26 H5         -2.7143   -0.1018    2.1662 H         1 <0>         0.0545
     27 H6         -4.2421    0.1615    1.2918 H         1 <0>         0.0597
     28 H7         -3.4731   -1.4438    1.2765 H         1 <0>         0.0555
     29 H8         -2.0946   -2.6506    0.0075 H         1 <0>         0.1309
     30 H9          0.0542   -3.8501   -0.0190 H         1 <0>         0.1259
     31 H10         2.1701   -2.5923   -0.0333 H         1 <0>         0.1263
     32 H11         2.1408   -0.1312   -0.0297 H         1 <0>         0.1265
     33 H12         1.8173    1.7308    0.8840 H         1 <0>         0.1024
     34 H13         1.8003    1.7403   -0.8958 H         1 <0>         0.1024
     35 H14         2.9890    3.9889   -0.0051 H         1 <0>         0.4211
     36 H15         0.9842    6.0922    0.0254 H         1 <0>         0.4605
     37 H16         4.3353    5.1112   -0.0119 H         1 <0>         0.3917
     38 H17         5.3029    7.6124   -0.8977 H         1 <0>         0.0958
     39 H18         5.3199    7.6028    0.8821 H         1 <0>         0.1002
     40 H19         6.7977    5.4298    0.7325 H         1 <0>         0.1168
     41 H20         7.3337    7.1278   -1.7253 H         1 <0>         0.1053
     42 H21         8.4254    5.8062   -0.9766 H         1 <0>         0.1080
@<TRIPOS>BOND
     1    1    2 1
     2    1   22 1
     3    1   23 1
     4    1   24 1
     5    2    3 1
     6    2    4 1
     7    2   25 1
     8    3   26 1
     9    3   27 1
    10    3   28 1
    11    4    9 ar
    12    4    5 ar
    13    5    6 ar
    14    5   29 1
    15    6    7 ar
    16    6   30 1
    17    7    8 ar
    18    7   31 1
    19    8    9 ar
    20    8   32 1
    21    9   10 1
    22   10   11 1
    23   11   12 1
    24   11   33 1
    25   11   34 1
    26   12   13 2
    27   12   14 am
    28   14   15 1
    29   14   35 1
    30   15   16 1
    31   15   36 1
    32   16   17 2
    33   16   18 1
    34   18   19 1
    35   18   37 1
    36   19   20 1
    37   19   38 1
    38   19   39 1
    39   20   21 2
    40   20   40 1
    41   21   41 1
    42   21   42 1
@<TRIPOS>MOLECULE
ZINC40470177
   46    47     0     0     0
SMALL
USER_CHARGES

@<TRIPOS>ATOM
      1 C1         -0.0188    1.5331    0.0105 C.3       1 <0>        -0.1312
      2 C2          1.3932    2.1111    0.0001 C.3       1 <0>        -0.1168
      3 C3          2.2373    1.5532    1.1578 C.3       1 <0>        -0.1275
      4 C4          2.2518    0.0437    1.0185 C.3       1 <0>         0.0130
      5 H1          2.6050   -0.2335    0.0253 H         1 <0>         0.1451
      6 C5          0.7926   -0.4507    1.2180 C.3       1 <0>        -0.1033
      7 H2          0.3704   -0.0307    2.1309 H         1 <0>         0.1069
      8 C6          0.0021   -0.0041    0.0020 C.3       1 <0>        -0.1091
      9 C7          0.9930   -1.9594    1.3703 C.3       1 <0>        -0.1262
     10 C8          2.4239   -2.0898    1.9517 C.3       1 <0>         0.0118
     11 H3          3.0414   -2.6960    1.2889 H         1 <0>         0.1637
     12 N1          2.9896   -0.7088    2.0384 N.4       1 <0>        -0.4979
     13 C9          2.3684   -2.7174    3.3207 C.2       1 <0>         0.5008
     14 O1          2.4399   -2.0204    4.3106 O.2       1 <0>        -0.5277
     15 N2          2.2394   -4.0532    3.4449 N.am      1 <0>        -0.6961
     16 C10         2.1855   -4.6632    4.7758 C.3       1 <0>         0.1121
     17 C11         2.0378   -6.1797    4.6360 C.3       1 <0>        -0.1323
     18 C12         1.9815   -6.8168    6.0259 C.3       1 <0>        -0.1183
     19 C13         1.8339   -8.3332    5.8862 C.3       1 <0>        -0.0923
     20 C14         1.7776   -8.9704    7.2761 C.3       1 <0>        -0.1856
     21 C15         1.6322  -10.4640    7.1385 C.2       1 <0>         0.4863
     22 O2          1.5786  -10.9719    6.0314 O.co2     1 <0>        -0.7006
     23 O3          1.5682  -11.1646    8.1343 O.co2     1 <0>        -0.7037
     24 H4         -0.5381    1.8775    0.9048 H         1 <0>         0.0710
     25 H5         -0.5551    1.8870   -0.8700 H         1 <0>         0.0807
     26 H6          1.8742    1.8597   -0.9452 H         1 <0>         0.0736
     27 H7          1.3350    3.1957    0.0918 H         1 <0>         0.0859
     28 H8          3.2540    1.9411    1.0959 H         1 <0>         0.0901
     29 H9          1.7900    1.8333    2.1115 H         1 <0>         0.0899
     30 H10        -1.0160   -0.3892    0.0595 H         1 <0>         0.0886
     31 H11         0.4848   -0.3635   -0.9068 H         1 <0>         0.0792
     32 H12         0.2600   -2.3745    2.0621 H         1 <0>         0.1114
     33 H13         0.9278   -2.4535    0.4009 H         1 <0>         0.1186
     34 H14         3.9767   -0.7116    1.8294 H         1 <0>         0.4342
     35 H15         2.1822   -4.6106    2.6532 H         1 <0>         0.4112
     36 H16         3.1038   -4.4359    5.3171 H         1 <0>         0.0797
     37 H17         1.3322   -4.2641    5.3241 H         1 <0>         0.0798
     38 H18         1.1195   -6.4070    4.0947 H         1 <0>         0.0729
     39 H19         2.8911   -6.5788    4.0877 H         1 <0>         0.0726
     40 H20         2.8999   -6.5895    6.5673 H         1 <0>         0.0612
     41 H21         1.1283   -6.4177    6.5743 H         1 <0>         0.0614
     42 H22         0.9156   -8.5605    5.3449 H         1 <0>         0.0600
     43 H23         2.6872   -8.7324    5.3379 H         1 <0>         0.0598
     44 H24         2.6960   -8.7431    7.8175 H         1 <0>         0.0558
     45 H25         0.9243   -8.5712    7.8245 H         1 <0>         0.0559
     46 H26         2.8224   -0.3191    2.9540 H         1 <0>         0.4354
@<TRIPOS>BOND
     1    1    8 1
     2    1    2 1
     3    1   24 1
     4    1   25 1
     5    2    3 1
     6    2   26 1
     7    2   27 1
     8    3    4 1
     9    3   28 1
    10    3   29 1
    11    4    5 1
    12    4   12 1
    13    4    6 1
    14    6    7 1
    15    6    8 1
    16    6    9 1
    17    8   30 1
    18    8   31 1
    19    9   10 1
    20    9   32 1
    21    9   33 1
    22   10   11 1
    23   10   12 1
    24   10   13 1
    25   12   34 1
    26   12   46 1
    27   13   14 2
    28   13   15 am
    29   15   16 1
    30   15   35 1
    31   16   17 1
    32   16   36 1
    33   16   37 1
    34   17   18 1
    35   17   38 1
    36   17   39 1
    37   18   19 1
    38   18   40 1
    39   18   41 1
    40   19   20 1
    41   19   42 1
    42   19   43 1
    43   20   21 1
    44   20   44 1
    45   20   45 1
    46   21   22 2
    47   21   23 1
@<TRIPOS>MOLECULE
ZINC43418972
   50    51     0     0     0
SMALL
USER_CHARGES

@<TRIPOS>ATOM
      1 C1         -0.6265    1.2613    0.0545 C.3       1 <0>        -0.1530
      2 C2         -0.2249   -0.2148    0.0318 C.3       1 <0>        -0.1151
      3 C3          0.3905   -0.5551   -1.3271 C.3       1 <0>        -0.1469
      4 C4          0.7992   -0.4818    1.1367 C.3       1 <0>         0.1092
      5 N1          0.1771   -0.2572    2.4438 N.am      1 <0>        -0.6166
      6 C5         -0.6070   -1.3219    3.0745 C.3       1 <0>         0.1289
      7 C6          0.3101   -2.1835    3.9449 C.3       1 <0>        -0.0774
      8 C7         -0.4965   -3.2787    4.5936 C.2       1 <0>         0.3722
      9 N2         -1.7652   -3.3674    4.3670 N.2       1 <0>        -0.4234
     10 O1         -2.5231   -4.3965    4.9766 O.3       1 <0>        -0.4287
     11 N3          0.1189   -4.1851    5.4282 N.pl3     1 <0>        -0.8721
     12 C8          0.3261    0.9290    3.0662 C.2       1 <0>         0.5146
     13 O2         -0.2540    1.1435    4.1094 O.2       1 <0>        -0.5304
     14 C9          1.2135    1.9887    2.4657 C.3       1 <0>        -0.1472
     15 C10         1.2561    3.2042    3.3940 C.3       1 <0>        -0.0736
     16 H1          0.2455    3.5129    3.6612 H         1 <0>         0.0803
     17 C11         2.0754    2.8832    4.6649 C.3       1 <0>        -0.1059
     18 C12         3.2618    3.8945    4.6351 C.3       1 <0>        -0.1076
     19 H2          3.7627    4.0696    5.5872 H         1 <0>         0.0944
     20 C13         4.1694    3.3973    3.4687 C.3       1 <0>        -0.1209
     21 C14         3.3617    3.7043    2.1869 C.3       1 <0>        -0.1284
     22 C15         2.0220    4.3803    2.7146 C.3       1 <0>        -0.1012
     23 H3          1.4523    4.9665    1.9936 H         1 <0>         0.0994
     24 C16         2.5660    5.1387    3.9783 C.3       1 <0>        -0.1231
     25 H4          0.2580    1.8808   -0.0938 H         1 <0>         0.0590
     26 H5         -1.3438    1.4551   -0.7431 H         1 <0>         0.0585
     27 H6         -1.0799    1.4998    1.0167 H         1 <0>         0.0555
     28 H7         -1.1068   -0.8339    0.1965 H         1 <0>         0.0758
     29 H8          1.2723    0.0640   -1.4918 H         1 <0>         0.0573
     30 H9          0.6766   -1.6067   -1.3433 H         1 <0>         0.0569
     31 H10        -0.3392   -0.3649   -2.1142 H         1 <0>         0.0596
     32 H11         1.1440   -1.5138    1.0709 H         1 <0>         0.0787
     33 H12         1.6470    0.1928    1.0170 H         1 <0>         0.0835
     34 H13        -1.3868   -0.8801    3.6949 H         1 <0>         0.0954
     35 H14        -1.0640   -1.9421    2.3034 H         1 <0>         0.0860
     36 H15         1.0899   -2.6253    3.3245 H         1 <0>         0.0928
     37 H16         0.7671   -1.5633    4.7160 H         1 <0>         0.0955
     38 H17        -3.4624   -4.3817    4.7474 H         1 <0>         0.3997
     39 H18         1.0716   -4.1185    5.5983 H         1 <0>         0.3966
     40 H19        -0.4002   -4.8901    5.8458 H         1 <0>         0.4074
     41 H20         2.2208    1.5913    2.3410 H         1 <0>         0.0967
     42 H21         0.8177    2.2867    1.4948 H         1 <0>         0.1022
     43 H22         1.4681    3.0360    5.5571 H         1 <0>         0.0650
     44 H23         2.4477    1.8594    4.6285 H         1 <0>         0.0586
     45 H24         5.1133    3.9423    3.4628 H         1 <0>         0.0616
     46 H25         4.3488    2.3258    3.5572 H         1 <0>         0.0613
     47 H26         3.9086    4.4004    1.5509 H         1 <0>         0.0616
     48 H27         3.1442    2.7838    1.6452 H         1 <0>         0.0689
     49 H28         1.7586    5.5296    4.5975 H         1 <0>         0.0698
     50 H29         3.2833    5.9150    3.7121 H         1 <0>         0.0689
@<TRIPOS>BOND
     1    1    2 1
     2    1   25 1
     3    1   26 1
     4    1   27 1
     5    2    3 1
     6    2    4 1
     7    2   28 1
     8    3   29 1
     9    3   30 1
    10    3   31 1
    11    4    5 1
    12    4   32 1
    13    4   33 1
    14    5    6 1
    15    5   12 am
    16    6    7 1
    17    6   34 1
    18    6   35 1
    19    7    8 1
    20    7   36 1
    21    7   37 1
    22    8    9 2
    23    8   11 1
    24    9   10 1
    25   10   38 1
    26   11   39 1
    27   11   40 1
    28   12   13 2
    29   12   14 1
    30   14   15 1
    31   14   41 1
    32   14   42 1
    33   15   16 1
    34   15   22 1
    35   15   17 1
    36   17   18 1
    37   17   43 1
    38   17   44 1
    39   18   19 1
    40   18   24 1
    41   18   20 1
    42   20   21 1
    43   20   45 1
    44   20   46 1
    45   21   22 1
    46   21   47 1
    47   21   48 1
    48   22   23 1
    49   22   24 1
    50   24   49 1
    51   24   50 1
@<TRIPOS>MOLECULE
ZINC52880754
   42    42     0     0     0
SMALL
USER_CHARGES

@<TRIPOS>ATOM
      1 C1         -0.3109    0.5971    0.1460 C.3       1 <0>        -0.1757
      2 C2         -0.4152   -0.9164   -0.0523 C.3       1 <0>        -0.1473
      3 C3          0.3278   -1.3158   -1.3288 C.3       1 <0>         0.0261
      4 H1          1.3547   -0.9536   -1.2799 H         1 <0>         0.1382
      5 C4          0.3305   -2.8400   -1.4616 C.3       1 <0>        -0.1856
      6 N1         -0.3453   -0.7240   -2.4927 N.4       1 <0>        -0.4923
      7 C5          0.4341   -1.0071   -3.7053 C.3       1 <0>        -0.0320
      8 C6         -0.2565   -0.4001   -4.8994 C.2       1 <0>         0.5019
      9 O1         -1.2955    0.2085   -4.7544 O.2       1 <0>        -0.5125
     10 N2          0.2806   -0.5334   -6.1283 N.am      1 <0>        -0.6766
     11 C7         -0.3906    0.0568   -7.2890 C.3       1 <0>         0.1378
     12 C8         -0.5320    1.5663   -7.0835 C.3       1 <0>        -0.1429
     13 C9          0.4246   -0.2073   -8.5287 C.ar      1 <0>        -0.0575
     14 C10         1.2707   -1.2992   -8.5799 C.ar      1 <0>        -0.1301
     15 C11         2.0185   -1.5414   -9.7171 C.ar      1 <0>        -0.1188
     16 C12         1.9198   -0.6919  -10.8031 C.ar      1 <0>        -0.1286
     17 C13         1.0729    0.3995  -10.7522 C.ar      1 <0>        -0.1156
     18 C14         0.3220    0.6393   -9.6167 C.ar      1 <0>        -0.0932
     19 C15        -1.7571   -0.5590   -7.4458 C.2       1 <0>         0.5103
     20 O2         -2.1353   -1.4117   -6.6608 O.co2     1 <0>        -0.6791
     21 O3         -2.4846   -0.2044   -8.3578 O.co2     1 <0>        -0.6702
     22 H2          0.7380    0.8809    0.2323 H         1 <0>         0.0702
     23 H3         -0.7562    1.1071   -0.7082 H         1 <0>         0.0554
     24 H4         -0.8402    0.8817    1.0554 H         1 <0>         0.0816
     25 H5          0.0301   -1.4263    0.8019 H         1 <0>         0.1104
     26 H6         -1.4640   -1.2001   -0.1386 H         1 <0>         0.0898
     27 H7         -0.6964   -3.2023   -1.5105 H         1 <0>         0.0845
     28 H8          0.8598   -3.1246   -2.3709 H         1 <0>         0.0827
     29 H9          0.8299   -3.2791   -0.5980 H         1 <0>         0.1043
     30 H10        -1.2681   -1.1214   -2.5856 H         1 <0>         0.4358
     31 H11         1.4309   -0.5779   -3.6050 H         1 <0>         0.1515
     32 H12         0.5149   -2.0855   -3.8418 H         1 <0>         0.1558
     33 H13         1.1116   -1.0201   -6.2442 H         1 <0>         0.3945
     34 H14         0.4564    2.0116   -6.9701 H         1 <0>         0.0449
     35 H15        -1.0314    2.0054   -7.9471 H         1 <0>         0.0759
     36 H16        -1.1216    1.7572   -6.1868 H         1 <0>         0.0728
     37 H17         1.3478   -1.9629   -7.7314 H         1 <0>         0.1130
     38 H18         2.6801   -2.3941   -9.7568 H         1 <0>         0.1197
     39 H19         2.5045   -0.8807  -11.6913 H         1 <0>         0.1200
     40 H20         0.9961    1.0634  -11.6006 H         1 <0>         0.1229
     41 H21        -0.3424    1.4899   -9.5783 H         1 <0>         0.1283
     42 H22        -0.4201    0.2742   -2.3664 H         1 <0>         0.4298
@<TRIPOS>BOND
     1    1    2 1
     2    1   22 1
     3    1   23 1
     4    1   24 1
     5    2    3 1
     6    2   25 1
     7    2   26 1
     8    3    4 1
     9    3    5 1
    10    3    6 1
    11    5   27 1
    12    5   28 1
    13    5   29 1
    14    6    7 1
    15    6   30 1
    16    6   42 1
    17    7    8 1
    18    7   31 1
    19    7   32 1
    20    8    9 2
    21    8   10 am
    22   10   11 1
    23   10   33 1
    24   11   12 1
    25   11   13 1
    26   11   19 1
    27   12   34 1
    28   12   35 1
    29   12   36 1
    30   13   18 ar
    31   13   14 ar
    32   14   15 ar
    33   14   37 1
    34   15   16 ar
    35   15   38 1
    36   16   17 ar
    37   16   39 1
    38   17   18 ar
    39   17   40 1
    40   18   41 1
    41   19   20 2
    42   19   21 1
@<TRIPOS>MOLECULE
ZINC60416514
   49    49     0     0     0
SMALL
USER_CHARGES

@<TRIPOS>ATOM
      1 C1         -1.4570   -0.4684   -0.0266 C.3       1 <0>        -0.1388
      2 C2         -0.0062    0.0173   -0.0112 C.3       1 <0>        -0.0308
      3 C3          0.0192    1.5469    0.0167 C.3       1 <0>        -0.1399
      4 C4          0.7007   -0.5272    1.2316 C.3       1 <0>        -0.1463
      5 C5          0.7013   -0.4743   -1.2476 C.ar      1 <0>        -0.0669
      6 C6          1.8081   -1.2948   -1.1288 C.ar      1 <0>        -0.1109
      7 C7          2.4588   -1.7471   -2.2600 C.ar      1 <0>        -0.1000
      8 C8          2.0002   -1.3775   -3.5176 C.ar      1 <0>         0.1308
      9 C9          0.8881   -0.5538   -3.6334 C.ar      1 <0>        -0.1171
     10 C10         0.2390   -0.1088   -2.4985 C.ar      1 <0>        -0.1063
     11 N1          2.6574   -1.8336   -4.6655 N.am      1 <0>        -0.5793
     12 C11         1.9858   -2.7689   -5.5713 C.3       1 <0>         0.0781
     13 C12         3.9084   -1.4126   -4.9380 C.2       1 <0>         0.5130
     14 O1          4.5005   -0.7151   -4.1417 O.2       1 <0>        -0.5204
     15 C13         4.5716   -1.8084   -6.2320 C.3       1 <0>        -0.1357
     16 C14         5.9756   -1.2033   -6.2916 C.3       1 <0>        -0.1034
     17 C15         6.6489   -1.6051   -7.6054 C.3       1 <0>        -0.1302
     18 C16         8.0529   -1.0000   -7.6649 C.3       1 <0>         0.1353
     19 N2          8.6975   -1.3848   -8.9229 N.am      1 <0>        -0.7469
     20 C17         9.9485   -0.9637   -9.1953 C.2       1 <0>         0.7031
     21 O2         10.5420   -0.2645   -8.3971 O.2       1 <0>        -0.5926
     22 N3         10.5416   -1.3177  -10.3527 N.am      1 <0>        -0.8684
     23 H1         -1.9606   -0.0805   -0.9120 H         1 <0>         0.0570
     24 H2         -1.4751   -1.5581   -0.0465 H         1 <0>         0.0565
     25 H3         -1.9688   -0.1128    0.8676 H         1 <0>         0.0598
     26 H4         -0.4926    1.9025    0.9110 H         1 <0>         0.0598
     27 H5          1.0527    1.8930    0.0277 H         1 <0>         0.0574
     28 H6         -0.4845    1.9348   -0.8687 H         1 <0>         0.0570
     29 H7          0.6826   -1.6169    1.2117 H         1 <0>         0.0590
     30 H8          1.7343   -0.1811    1.2426 H         1 <0>         0.0596
     31 H9          0.1890   -0.1716    2.1259 H         1 <0>         0.0597
     32 H10         2.1643   -1.5818   -0.1505 H         1 <0>         0.1307
     33 H11         3.3236   -2.3872   -2.1665 H         1 <0>         0.1210
     34 H12         0.5292   -0.2643   -4.6100 H         1 <0>         0.1226
     35 H13        -0.6284    0.5285   -2.5880 H         1 <0>         0.1253
     36 H14         1.4369   -2.2099   -6.3291 H         1 <0>         0.0613
     37 H15         2.7287   -3.4033   -6.0547 H         1 <0>         0.0786
     38 H16         1.2921   -3.3893   -5.0039 H         1 <0>         0.0758
     39 H17         4.6416   -2.8948   -6.2870 H         1 <0>         0.0963
     40 H18         3.9811   -1.4394   -7.0706 H         1 <0>         0.0967
     41 H19         5.9056   -0.1169   -6.2366 H         1 <0>         0.0758
     42 H20         6.5661   -1.5722   -5.4530 H         1 <0>         0.0757
     43 H21         6.7188   -2.6915   -7.6604 H         1 <0>         0.0708
     44 H22         6.0583   -1.2362   -8.4440 H         1 <0>         0.0709
     45 H23         7.9829    0.0864   -7.6099 H         1 <0>         0.0688
     46 H24         8.6434   -1.3689   -6.8263 H         1 <0>         0.0688
     47 H25         8.2241   -1.9426   -9.5597 H         1 <0>         0.3963
     48 H26        10.0681   -1.8755  -10.9895 H         1 <0>         0.3966
     49 H27        11.4420   -1.0147  -10.5488 H         1 <0>         0.4157
@<TRIPOS>BOND
     1    1    2 1
     2    1   23 1
     3    1   24 1
     4    1   25 1
     5    2    3 1
     6    2    4 1
     7    2    5 1
     8    3   26 1
     9    3   27 1
    10    3   28 1
    11    4   29 1
    12    4   30 1
    13    4   31 1
    14    5   10 ar
    15    5    6 ar
    16    6    7 ar
    17    6   32 1
    18    7    8 ar
    19    7   33 1
    20    8    9 ar
    21    8   11 1
    22    9   10 ar
    23    9   34 1
    24   10   35 1
    25   11   12 1
    26   11   13 am
    27   12   36 1
    28   12   37 1
    29   12   38 1
    30   13   14 2
    31   13   15 1
    32   15   16 1
    33   15   39 1
    34   15   40 1
    35   16   17 1
    36   16   41 1
    37   16   42 1
    38   17   18 1
    39   17   43 1
    40   17   44 1
    41   18   19 1
    42   18   45 1
    43   18   46 1
    44   19   20 am
    45   19   47 1
    46   20   21 2
    47   20   22 am
    48   22   48 1
    49   22   49 1
@<TRIPOS>MOLECULE
ZINC19861814
   31    31     0     0     0
SMALL
USER_CHARGES
2-[2-methoxy-4-[(E)-prop-1-enyl]phenoxy]ethanol
@<TRIPOS>ATOM
      1 C1          1.2478   -6.4062   -0.0476 C.3       1 <0>        -0.1289
      2 C2          1.2235   -4.8994   -0.0383 C.2       1 <0>        -0.1479
      3 C3          0.0646   -4.2552   -0.0233 C.2       1 <0>        -0.1267
      4 C4          0.0408   -2.7776   -0.0142 C.ar      1 <0>        -0.0520
      5 C5          1.2371   -2.0589   -0.0217 C.ar      1 <0>        -0.1116
      6 C6          1.2132   -0.6796   -0.0190 C.ar      1 <0>        -0.1726
      7 C7          0.0021   -0.0041    0.0020 C.ar      1 <0>         0.1022
      8 C8         -1.1953   -0.7154    0.0096 C.ar      1 <0>         0.1019
      9 C9         -1.1781   -2.0981    0.0016 C.ar      1 <0>        -0.1641
     10 O1         -2.3814   -0.0501    0.0254 O.3       1 <0>        -0.3050
     11 C10        -3.5701   -0.8433    0.0325 C.3       1 <0>         0.0222
     12 O2         -0.0164    1.3553    0.0095 O.3       1 <0>        -0.2944
     13 C11         1.2479    2.0214    0.0010 C.3       1 <0>         0.0550
     14 C12         1.0269    3.5353    0.0112 C.3       1 <0>         0.0875
     15 O3          0.4064    3.9178    1.2403 O.3       1 <0>        -0.5954
     16 H1          2.2906   -6.7560   -0.0597 H         1 <0>         0.0638
     17 H2          0.7266   -6.7758   -0.9430 H         1 <0>         0.0682
     18 H3          0.7439   -6.7866    0.8532 H         1 <0>         0.0683
     19 H4          2.1670   -4.3340   -0.0440 H         1 <0>         0.1152
     20 H5         -0.8789   -4.8206   -0.0176 H         1 <0>         0.1195
     21 H6          2.1815   -2.5826   -0.0339 H         1 <0>         0.1294
     22 H7          2.1396   -0.1246   -0.0293 H         1 <0>         0.1354
     23 H8         -2.1059   -2.6509    0.0078 H         1 <0>         0.1369
     24 H9         -4.4506   -0.1842    0.0452 H         1 <0>         0.1028
     25 H10        -3.5783   -1.4835    0.9270 H         1 <0>         0.0558
     26 H11        -3.5962   -1.4728   -0.8692 H         1 <0>         0.0556
     27 H12         1.8225    1.7287    0.8922 H         1 <0>         0.0698
     28 H13         1.8054    1.7383   -0.9040 H         1 <0>         0.0776
     29 H14         1.9953    4.0479   -0.0857 H         1 <0>         0.0651
     30 H15         0.3772    3.8167   -0.8307 H         1 <0>         0.0546
     31 H16         0.1679    4.9747    1.4304 H         1 <0>         0.4119
@<TRIPOS>BOND
     1    1    2 1
     2    1   16 1
     3    1   17 1
     4    1   18 1
     5    2    3 2
     6    2   19 1
     7    3    4 1
     8    3   20 1
     9    4    9 ar
    10    4    5 ar
    11    5    6 ar
    12    5   21 1
    13    6    7 ar
    14    6   22 1
    15    7    8 ar
    16    7   12 1
    17    8    9 ar
    18    8   10 1
    19    9   23 1
    20   10   11 1
    21   11   24 1
    22   11   25 1
    23   11   26 1
    24   12   13 1
    25   13   14 1
    26   13   27 1
    27   13   28 1
    28   14   15 1
    29   14   29 1
    30   14   30 1
    31   15   31 1
@<TRIPOS>MOLECULE
ZINC37928180
   32    32     0     0     0
SMALL
USER_CHARGES

@<TRIPOS>ATOM
      1 C1          1.3924    1.5238    0.6211 C.3       1 <0>        -0.1491
      2 C2          1.2102    0.0070    0.5362 C.3       1 <0>         0.0506
      3 O1          1.6787   -0.4588   -0.7309 O.3       1 <0>        -0.3652
      4 C3          1.5881   -1.7872   -0.9685 C.2       1 <0>         0.4027
      5 N1          1.0915   -2.5776   -0.0625 N.2       1 <0>        -0.7423
      6 C4          2.0533   -2.3409   -2.2578 C.ar      1 <0>        -0.0946
      7 C5          2.5918   -1.4949   -3.2292 C.ar      1 <0>        -0.0342
      8 C6          3.0243   -2.0145   -4.4296 C.ar      1 <0>        -0.2217
      9 C7          2.9248   -3.3785   -4.6744 C.ar      1 <0>         0.1589
     10 C8          2.3895   -4.2235   -3.7101 C.ar      1 <0>        -0.1641
     11 C9          1.9606   -3.7119   -2.5049 C.ar      1 <0>        -0.0182
     12 O2          3.3512   -3.8869   -5.8589 O.3       1 <0>        -0.3065
     13 C10         3.7801   -2.9509   -6.8498 C.3       1 <0>         0.0747
     14 C11         5.2469   -2.5887   -6.6082 C.3       1 <0>        -0.1827
     15 C12         3.6309   -3.5746   -8.2389 C.3       1 <0>        -0.1503
     16 H1          2.4487    1.7695    0.5115 H         1 <0>         0.0686
     17 H2          0.8233    2.0032   -0.1754 H         1 <0>         0.0686
     18 H3          1.0350    1.8791    1.5876 H         1 <0>         0.0811
     19 H4          1.7793   -0.4724    1.3326 H         1 <0>         0.0630
     20 H5          0.1539   -0.2387    0.6457 H         1 <0>         0.0631
     21 H6          0.7862   -2.2143    0.7835 H         1 <0>         0.3419
     22 H7          2.6688   -0.4344   -3.0399 H         1 <0>         0.1361
     23 H8          3.4410   -1.3607   -5.1815 H         1 <0>         0.1364
     24 H9          2.3133   -5.2832   -3.9039 H         1 <0>         0.1389
     25 H10         1.5490   -4.3700   -1.7539 H         1 <0>         0.1475
     26 H11         3.1686   -2.0507   -6.7881 H         1 <0>         0.0762
     27 H12         5.3532   -2.1444   -5.6186 H         1 <0>         0.0641
     28 H13         5.8583   -3.4889   -6.6699 H         1 <0>         0.0691
     29 H14         5.5740   -1.8747   -7.3641 H         1 <0>         0.0741
     30 H15         2.5860   -3.8326   -8.4110 H         1 <0>         0.0661
     31 H16         3.9581   -2.8606   -8.9948 H         1 <0>         0.0787
     32 H17         4.2424   -4.4748   -8.3006 H         1 <0>         0.0684
@<TRIPOS>BOND
     1    1    2 1
     2    1   16 1
     3    1   17 1
     4    1   18 1
     5    2    3 1
     6    2   19 1
     7    2   20 1
     8    3    4 1
     9    4    5 2
    10    4    6 1
    11    5   21 1
    12    6   11 ar
    13    6    7 ar
    14    7    8 ar
    15    7   22 1
    16    8    9 ar
    17    8   23 1
    18    9   10 ar
    19    9   12 1
    20   10   11 ar
    21   10   24 1
    22   11   25 1
    23   12   13 1
    24   13   14 1
    25   13   15 1
    26   13   26 1
    27   14   27 1
    28   14   28 1
    29   14   29 1
    30   15   30 1
    31   15   31 1
    32   15   32 1
@<TRIPOS>MOLECULE
ZINC45209366
   32    33     0     0     0
SMALL
USER_CHARGES

@<TRIPOS>ATOM
      1 C1         -0.0173    1.4248    0.0099 C.3       1 <0>         0.0300
      2 O1          0.0021   -0.0041    0.0020 O.3       1 <0>        -0.3686
      3 C2          0.6734   -0.5824    1.1231 C.3       1 <0>         0.0804
      4 C3          0.6327   -2.1077    1.0107 C.3       1 <0>         0.2725
      5 C4         -0.7676   -2.5610    0.9900 C.1       1 <0>         0.2228
      6 N1         -1.8483   -2.9108    0.9739 N.1       1 <0>        -0.4030
      7 C5          1.3406   -2.7177    2.1930 C.ar      1 <0>        -0.1269
      8 C6          2.4452   -3.5251    1.9960 C.ar      1 <0>        -0.1124
      9 C7          3.0946   -4.0846    3.0805 C.ar      1 <0>        -0.1145
     10 C8          2.6397   -3.8362    4.3620 C.ar      1 <0>        -0.1071
     11 C9          1.5357   -3.0280    4.5591 C.ar      1 <0>        -0.1149
     12 C10         0.8889   -2.4651    3.4748 C.ar      1 <0>        -0.1006
     13 N2          1.3010   -2.5254   -0.2290 N.3       1 <0>        -0.6306
     14 C11         2.7037   -2.0893   -0.2436 C.3       1 <0>         0.0099
     15 C12         3.2427   -1.4870   -1.5427 C.3       1 <0>        -0.1591
     16 C13         3.6824   -2.8866   -1.1081 C.3       1 <0>        -0.1933
     17 H1          1.0053    1.8021    0.0021 H         1 <0>         0.0438
     18 H2         -0.5445    1.7859   -0.8732 H         1 <0>         0.0894
     19 H3         -0.5275    1.7763    0.9067 H         1 <0>         0.0404
     20 H4          1.7103   -0.2468    1.1385 H         1 <0>         0.0723
     21 H5          0.1775   -0.2725    2.0430 H         1 <0>         0.0624
     22 H6          2.8006   -3.7191    0.9948 H         1 <0>         0.1371
     23 H7          3.9572   -4.7160    2.9266 H         1 <0>         0.1285
     24 H8          3.1467   -4.2739    5.2093 H         1 <0>         0.1270
     25 H9          1.1801   -2.8343    5.5603 H         1 <0>         0.1281
     26 H10         0.0285   -1.8307    3.6289 H         1 <0>         0.1241
     27 H11         1.2313   -3.5236   -0.3588 H         1 <0>         0.3529
     28 H12         3.0786   -1.6805    0.6946 H         1 <0>         0.1113
     29 H13         2.5566   -1.4144   -2.3865 H         1 <0>         0.1030
     30 H14         3.9725   -0.6817   -1.4593 H         1 <0>         0.0956
     31 H15         4.7014   -3.0020   -0.7387 H         1 <0>         0.0997
     32 H16         3.2855   -3.7347   -1.6660 H         1 <0>         0.0999
@<TRIPOS>BOND
     1    1    2 1
     2    1   17 1
     3    1   18 1
     4    1   19 1
     5    2    3 1
     6    3    4 1
     7    3   20 1
     8    3   21 1
     9    4    5 1
    10    4    7 1
    11    4   13 1
    12    5    6 3
    13    7   12 ar
    14    7    8 ar
    15    8    9 ar
    16    8   22 1
    17    9   10 ar
    18    9   23 1
    19   10   11 ar
    20   10   24 1
    21   11   12 ar
    22   11   25 1
    23   12   26 1
    24   13   14 1
    25   13   27 1
    26   14   16 1
    27   14   15 1
    28   14   28 1
    29   15   16 1
    30   15   29 1
    31   15   30 1
    32   16   31 1
    33   16   32 1
@<TRIPOS>MOLECULE
ZINC51963007
   27    27     0     0     0
SMALL
USER_CHARGES

@<TRIPOS>ATOM
      1 C1          0.0180   -1.1779   -0.0044 C.1       1 <0>        -0.1753
      2 C2          0.0021   -0.0041    0.0020 C.1       1 <0>        -0.1972
      3 C3         -0.0179    1.4678    0.0101 C.3       1 <0>         0.1657
      4 N1          1.3603    1.9762   -0.0003 N.3       1 <0>        -0.6762
      5 C4          1.3795    3.4451    0.0074 C.3       1 <0>         0.2400
      6 H1          0.5482    3.8162    0.6068 H         1 <0>         0.1064
      7 C5          1.2518    3.9447   -1.3713 C.1       1 <0>         0.2187
      8 N2          1.1533    4.3303   -2.4353 N.1       1 <0>        -0.4121
      9 C6          2.6794    3.9273    0.5981 C.ar      1 <0>        -0.1216
     10 C7          3.8020    3.1234    0.5480 C.ar      1 <0>        -0.0638
     11 C8          4.9945    3.5650    1.0902 C.ar      1 <0>        -0.1405
     12 C9          5.0674    4.8121    1.6833 C.ar      1 <0>        -0.0686
     13 C10         3.9481    5.6197    1.7355 C.ar      1 <0>        -0.1896
     14 C11         2.7513    5.1810    1.1874 C.ar      1 <0>         0.1240
     15 O1          1.6500    5.9760    1.2325 O.3       1 <0>        -0.3210
     16 C12         1.7976    7.2540    1.8545 C.3       1 <0>         0.4126
     17 F1          2.1917    7.0820    3.1858 F         1 <0>        -0.1957
     18 F2          2.7687    7.9952    1.1727 F         1 <0>        -0.1953
     19 H2          0.0322   -2.2278   -0.0102 H         1 <0>         0.2199
     20 H3         -0.5451    1.8289   -0.8729 H         1 <0>         0.0980
     21 H4         -0.5281    1.8193    0.9069 H         1 <0>         0.0675
     22 H5          1.8890    1.6036    0.7740 H         1 <0>         0.3656
     23 H6          3.7476    2.1490    0.0854 H         1 <0>         0.1475
     24 H7          5.8707    2.9348    1.0507 H         1 <0>         0.1341
     25 H8          6.0001    5.1547    2.1064 H         1 <0>         0.1336
     26 H9          4.0055    6.5936    2.1988 H         1 <0>         0.1381
     27 H10         0.8464    7.7855    1.8230 H         1 <0>         0.1853
@<TRIPOS>BOND
     1    1    2 3
     2    1   19 1
     3    2    3 1
     4    3    4 1
     5    3   20 1
     6    3   21 1
     7    4    5 1
     8    4   22 1
     9    5    6 1
    10    5    7 1
    11    5    9 1
    12    7    8 3
    13    9   14 ar
    14    9   10 ar
    15   10   11 ar
    16   10   23 1
    17   11   12 ar
    18   11   24 1
    19   12   13 ar
    20   12   25 1
    21   13   14 ar
    22   13   26 1
    23   14   15 1
    24   15   16 1
    25   16   17 1
    26   16   18 1
    27   16   27 1
@<TRIPOS>MOLECULE
ZINC61714402
   29    29     0     0     0
SMALL
USER_CHARGES

@<TRIPOS>ATOM
      1 C1         -0.0187    1.5258    0.0104 C.3       1 <0>        -0.1494
      2 C2          0.0021   -0.0041    0.0020 C.3       1 <0>        -0.1371
      3 C3          0.7421   -0.5109    1.2415 C.3       1 <0>         0.1323
      4 N1          0.7619   -1.9757    1.2335 N.pl3     1 <0>        -0.6811
      5 C4          1.3814   -2.6661    2.2635 C.2       1 <0>         0.3262
      6 N2          1.9917   -2.1796    3.3231 N.2       1 <0>        -0.5892
      7 C5          2.5369   -2.9791    4.2231 C.2       1 <0>         0.1356
      8 C6          2.4376   -4.3121    4.0036 C.2       1 <0>        -0.2567
      9 S1          1.5292   -4.3303    2.4666 S.3       1 <0>         0.0843
     10 C7          2.9487   -5.4630    4.8314 C.3       1 <0>         0.1632
     11 O1          1.9484   -5.8524    5.7746 O.3       1 <0>        -0.3871
     12 C8          2.3342   -6.9425    6.6142 C.3       1 <0>         0.0297
     13 C9          3.2384   -2.4320    5.4395 C.3       1 <0>        -0.0811
     14 H1          1.0039    1.9031    0.0027 H         1 <0>         0.0589
     15 H2         -0.5459    1.8868   -0.8726 H         1 <0>         0.0622
     16 H3         -0.5289    1.8773    0.9072 H         1 <0>         0.0590
     17 H4         -1.0205   -0.3814    0.0098 H         1 <0>         0.0702
     18 H5          0.5123   -0.3556   -0.8948 H         1 <0>         0.0700
     19 H6          1.7647   -0.1336    1.2338 H         1 <0>         0.0686
     20 H7          0.2319   -0.1594    2.1383 H         1 <0>         0.0687
     21 H8          0.3416   -2.4625    0.5073 H         1 <0>         0.4180
     22 H9          3.1805   -6.3049    4.1791 H         1 <0>         0.0614
     23 H10         3.8495   -5.1563    5.3629 H         1 <0>         0.0734
     24 H11         1.5213   -7.1773    7.3014 H         1 <0>         0.0879
     25 H12         2.5533   -7.8152    5.9990 H         1 <0>         0.0425
     26 H13         3.2223   -6.6666    7.1828 H         1 <0>         0.0435
     27 H14         2.5213   -2.3198    6.2527 H         1 <0>         0.0782
     28 H15         4.0278   -3.1194    5.7435 H         1 <0>         0.0737
     29 H16         3.6734   -1.4612    5.2021 H         1 <0>         0.0741
@<TRIPOS>BOND
     1    1    2 1
     2    1   14 1
     3    1   15 1
     4    1   16 1
     5    2    3 1
     6    2   17 1
     7    2   18 1
     8    3    4 1
     9    3   19 1
    10    3   20 1
    11    4    5 1
    12    4   21 1
    13    5    9 1
    14    5    6 2
    15    6    7 1
    16    7    8 2
    17    7   13 1
    18    8    9 1
    19    8   10 1
    20   10   11 1
    21   10   22 1
    22   10   23 1
    23   11   12 1
    24   12   24 1
    25   12   25 1
    26   12   26 1
    27   13   27 1
    28   13   28 1
    29   13   29 1
@<TRIPOS>MOLECULE
ZINC08048317
   25    25     0     0     0
SMALL
USER_CHARGES
6-chloro-N-(3-methoxypropyl)pyridazin-3-amine
@<TRIPOS>ATOM
      1 C1         -1.6359   -7.4084   -0.0193 C.3       1 <0>         0.0311
      2 O1         -0.5028   -6.5378   -0.0259 O.3       1 <0>        -0.3915
      3 C2         -0.8372   -5.1485   -0.0157 C.3       1 <0>         0.0646
      4 C3          0.4459   -4.3150   -0.0240 C.3       1 <0>        -0.1325
      5 C4          0.0878   -2.8275   -0.0130 C.3       1 <0>         0.1256
      6 N1          1.3164   -2.0295   -0.0209 N.pl3     1 <0>        -0.7094
      7 C5          1.2434   -0.6403   -0.0133 C.ar      1 <0>         0.3439
      8 C6          0.0021   -0.0041    0.0020 C.ar      1 <0>        -0.1677
      9 C7         -0.0167    1.3810    0.0096 C.ar      1 <0>        -0.0616
     10 C8          1.2009    2.0505    0.0016 C.ar      1 <0>         0.0584
     11 N2          2.3287    1.3672   -0.0128 N.ar      1 <0>        -0.1845
     12 N3          2.3523    0.0840   -0.0200 N.ar      1 <0>        -0.2861
     13 Cl1         1.2374    3.7861    0.0100 Cl        1 <0>        -0.0114
     14 H1         -2.2284   -7.2268    0.8774 H         1 <0>         0.0433
     15 H2         -2.2457   -7.2178   -0.9024 H         1 <0>         0.0433
     16 H3         -1.2979   -8.4447   -0.0278 H         1 <0>         0.0891
     17 H4         -1.4131   -4.9200    0.8811 H         1 <0>         0.0538
     18 H5         -1.4304   -4.9110   -0.8988 H         1 <0>         0.0538
     19 H6          1.0218   -4.5435   -0.9208 H         1 <0>         0.0829
     20 H7          1.0391   -4.5525    0.8591 H         1 <0>         0.0829
     21 H8         -0.4881   -2.5990    0.8838 H         1 <0>         0.0710
     22 H9         -0.5054   -2.5901   -0.8961 H         1 <0>         0.0710
     23 H10         2.1806   -2.4697   -0.0316 H         1 <0>         0.4142
     24 H11        -0.9156   -0.5735    0.0074 H         1 <0>         0.1556
     25 H12        -0.9500    1.9244    0.0170 H         1 <0>         0.1603
@<TRIPOS>BOND
     1    1    2 1
     2    1   14 1
     3    1   15 1
     4    1   16 1
     5    2    3 1
     6    3    4 1
     7    3   17 1
     8    3   18 1
     9    4    5 1
    10    4   19 1
    11    4   20 1
    12    5    6 1
    13    5   21 1
    14    5   22 1
    15    6    7 1
    16    6   23 1
    17    7   12 ar
    18    7    8 ar
    19    8    9 ar
    20    8   24 1
    21    9   10 ar
    22    9   25 1
    23   10   11 ar
    24   10   13 1
    25   11   12 ar
@<TRIPOS>MOLECULE
ZINC36994144
   33    34     0     0     0
SMALL
USER_CHARGES

@<TRIPOS>ATOM
      1 C1         -0.0187    1.5258    0.0104 C.3       1 <0>        -0.1853
      2 C2          0.0021   -0.0041    0.0020 C.3       1 <0>         0.0860
      3 H1         -1.0205   -0.3814    0.0098 H         1 <0>         0.0855
      4 C3          0.7421   -0.5109    1.2415 C.3       1 <0>        -0.0266
      5 C4          0.6567   -2.0144    1.2978 C.2       1 <0>        -0.0062
      6 C5          1.5362   -2.8732    0.7515 C.2       1 <0>        -0.1840
      7 C6          1.0716   -4.1763    1.0436 C.2       1 <0>        -0.2139
      8 C7         -0.0639   -4.0358    1.7508 C.2       1 <0>        -0.0488
      9 O1         -0.3072   -2.7242    1.9067 O.3       1 <0>        -0.1822
     10 N1          0.6897   -0.4778   -1.2066 N.3       1 <0>        -0.6716
     11 C8         -0.2354   -0.5469   -2.3457 C.3       1 <0>         0.1259
     12 C9          0.5041   -1.0357   -3.5644 C.2       1 <0>         0.0827
     13 C10         0.5640   -2.3149   -4.0015 C.2       1 <0>        -0.2494
     14 C11         1.3481   -2.3377   -5.1595 C.2       1 <0>         0.0454
     15 N2          1.7447   -1.1161   -5.4087 N.2       1 <0>        -0.2949
     16 N3          1.2202   -0.2751   -4.4187 N.pl3     1 <0>        -0.3731
     17 C12         1.4173    1.1735   -4.3253 C.3       1 <0>         0.0978
     18 H2          1.0039    1.9031    0.0027 H         1 <0>         0.0615
     19 H3         -0.5459    1.8868   -0.8726 H         1 <0>         0.0575
     20 H4         -0.5289    1.8773    0.9072 H         1 <0>         0.0688
     21 H5          1.7879   -0.2080    1.1895 H         1 <0>         0.0929
     22 H6          0.2852   -0.0874    2.1360 H         1 <0>         0.0848
     23 H7          2.4260   -2.6167    0.1959 H         1 <0>         0.1436
     24 H8          1.5387   -5.1060    0.7540 H         1 <0>         0.1441
     25 H9         -0.6742   -4.8411    2.1321 H         1 <0>         0.1985
     26 H10         1.4852    0.1043   -1.4217 H         1 <0>         0.3411
     27 H11        -1.0475   -1.2356   -2.1129 H         1 <0>         0.0985
     28 H12        -0.6445    0.4441   -2.5421 H         1 <0>         0.0427
     29 H13         0.0904   -3.1676   -3.5378 H         1 <0>         0.1470
     30 H14         1.5857   -3.2128   -5.7462 H         1 <0>         0.1838
     31 H15         2.3074    1.3816   -3.7315 H         1 <0>         0.0744
     32 H16         1.5426    1.5884   -5.3254 H         1 <0>         0.0908
     33 H17         0.5486    1.6284   -3.8494 H         1 <0>         0.0826
@<TRIPOS>BOND
     1    1    2 1
     2    1   18 1
     3    1   19 1
     4    1   20 1
     5    2    3 1
     6    2    4 1
     7    2   10 1
     8    4    5 1
     9    4   21 1
    10    4   22 1
    11    5    9 1
    12    5    6 2
    13    6    7 1
    14    6   23 1
    15    7    8 2
    16    7   24 1
    17    8    9 1
    18    8   25 1
    19   10   11 1
    20   10   26 1
    21   11   12 1
    22   11   27 1
    23   11   28 1
    24   12   16 1
    25   12   13 2
    26   13   14 1
    27   13   29 1
    28   14   15 2
    29   14   30 1
    30   15   16 1
    31   16   17 1
    32   17   31 1
    33   17   32 1
    34   17   33 1
@<TRIPOS>MOLECULE
ZINC44477253
   34    34     0     0     0
SMALL
USER_CHARGES

@<TRIPOS>ATOM
      1 C1         -0.0184    1.5028    0.0103 C.3       1 <0>        -0.1068
      2 C2          0.0021   -0.0041    0.0020 C.ar      1 <0>         0.2194
      3 C3          0.0060   -0.6989   -1.1973 C.ar      1 <0>        -0.2927
      4 C4          0.0255   -2.0843   -1.1603 C.ar      1 <0>         0.2210
      5 N1          0.0397   -2.6984    0.0111 N.ar      1 <0>        -0.5773
      6 C5          0.0354   -2.0044    1.1397 C.ar      1 <0>         0.5720
      7 N2          0.0220   -0.6795    1.1391 N.ar      1 <0>        -0.5741
      8 N3          0.0502   -2.6793    2.3480 N.pl3     1 <0>        -0.6968
      9 C6          0.0458   -1.9290    3.6062 C.3       1 <0>         0.1460
     10 C7          0.0645   -2.9066    4.7830 C.3       1 <0>        -0.1042
     11 H1          0.9151   -3.5807    4.6819 H         1 <0>         0.0867
     12 C8         -1.2319   -3.7192    4.7917 C.3       1 <0>        -0.1455
     13 C9          0.1856   -2.1256    6.0931 C.3       1 <0>         0.0693
     14 O1          0.3202   -3.0405    7.1825 O.3       1 <0>        -0.3892
     15 C10         0.4412   -2.4103    8.4593 C.3       1 <0>         0.0313
     16 C11         0.0299   -2.8813   -2.4393 C.3       1 <0>        -0.1075
     17 H2          1.0042    1.8801    0.0026 H         1 <0>         0.0853
     18 H3         -0.5455    1.8639   -0.8728 H         1 <0>         0.0815
     19 H4         -0.5286    1.8543    0.9071 H         1 <0>         0.0808
     20 H5         -0.0062   -0.1722   -2.1401 H         1 <0>         0.1424
     21 H6          0.0634   -3.6492    2.3616 H         1 <0>         0.4142
     22 H7          0.9273   -1.2896    3.6511 H         1 <0>         0.0685
     23 H8         -0.8524   -1.3138    3.6593 H         1 <0>         0.0696
     24 H9         -1.3182   -4.2756    3.8585 H         1 <0>         0.0553
     25 H10        -1.2186   -4.4156    5.6301 H         1 <0>         0.0673
     26 H11        -2.0825   -3.0451    4.8929 H         1 <0>         0.0559
     27 H12         1.0623   -1.4792    6.0510 H         1 <0>         0.0531
     28 H13        -0.7074   -1.5175    6.2375 H         1 <0>         0.0540
     29 H14         1.3231   -1.7699    8.4663 H         1 <0>         0.0421
     30 H15        -0.4466   -1.8082    8.6528 H         1 <0>         0.0422
     31 H16         0.5391   -3.1721    9.2327 H         1 <0>         0.0875
     32 H17         1.0585   -3.0592   -2.7530 H         1 <0>         0.0856
     33 H18        -0.4698   -3.8359   -2.2743 H         1 <0>         0.0813
     34 H19        -0.4957   -2.3254   -3.2157 H         1 <0>         0.0817
@<TRIPOS>BOND
     1    1    2 1
     2    1   17 1
     3    1   18 1
     4    1   19 1
     5    2    7 ar
     6    2    3 ar
     7    3    4 ar
     8    3   20 1
     9    4    5 ar
    10    4   16 1
    11    5    6 ar
    12    6    7 ar
    13    6    8 1
    14    8    9 1
    15    8   21 1
    16    9   10 1
    17    9   22 1
    18    9   23 1
    19   10   11 1
    20   10   12 1
    21   10   13 1
    22   12   24 1
    23   12   25 1
    24   12   26 1
    25   13   14 1
    26   13   27 1
    27   13   28 1
    28   14   15 1
    29   15   29 1
    30   15   30 1
    31   15   31 1
    32   16   32 1
    33   16   33 1
    34   16   34 1
@<TRIPOS>MOLECULE
ZINC51287896
   39    39     0     0     0
SMALL
USER_CHARGES

@<TRIPOS>ATOM
      1 C1         -1.8810    1.8013   -0.0538 C.3       1 <0>        -0.1533
      2 C2         -2.2002    0.3726    0.3912 C.3       1 <0>        -0.1082
      3 C3         -1.3794   -0.6157   -0.4396 C.3       1 <0>        -0.1548
      4 C4          0.0985   -0.2233   -0.3856 C.3       1 <0>        -0.0968
      5 C5          0.5813   -0.2530    1.0659 C.3       1 <0>        -0.1597
      6 C6         -1.5535   -2.0262    0.1270 C.3       1 <0>         0.0050
      7 N1         -2.9755   -2.3939    0.0968 N.4       1 <0>        -0.3799
      8 C7         -3.6217   -1.9547    1.3412 C.3       1 <0>        -0.0604
      9 C8         -5.1031   -2.3388    1.3071 C.3       1 <0>         0.0368
     10 O1         -5.2195   -3.7527    1.1254 O.3       1 <0>        -0.3621
     11 C9         -4.5841   -4.2328   -0.0627 C.3       1 <0>         0.0419
     12 C10        -3.1018   -3.8523   -0.0312 C.3       1 <0>        -0.0076
     13 H1         -2.6205   -4.3350    0.8193 H         1 <0>         0.1381
     14 C11        -2.4294   -4.3111   -1.3267 C.3       1 <0>        -0.1804
     15 C12        -1.8549   -0.5865   -1.8693 C.2       1 <0>         0.4845
     16 O2         -2.8277    0.0821   -2.1747 O.co2     1 <0>        -0.6707
     17 O3         -1.2669   -1.2313   -2.7207 O.co2     1 <0>        -0.6690
     18 H2         -2.4658    2.5054    0.5381 H         1 <0>         0.0481
     19 H3         -0.8190    1.9985    0.0918 H         1 <0>         0.0530
     20 H4         -2.1310    1.9178   -1.1084 H         1 <0>         0.0808
     21 H5         -1.9503    0.2562    1.4457 H         1 <0>         0.0542
     22 H6         -3.2623    0.1755    0.2456 H         1 <0>         0.0606
     23 H7          0.6832   -0.9274   -0.9775 H         1 <0>         0.0736
     24 H8          0.2225    0.7816   -0.7893 H         1 <0>         0.0775
     25 H9          1.6341    0.0266    1.1044 H         1 <0>         0.0591
     26 H10        -0.0035    0.4512    1.6578 H         1 <0>         0.0583
     27 H11         0.4572   -1.2578    1.4696 H         1 <0>         0.0472
     28 H12        -0.9826   -2.7328   -0.4754 H         1 <0>         0.1349
     29 H13        -1.1935   -2.0516    1.1555 H         1 <0>         0.1183
     30 H14        -3.1402   -2.4381    2.1912 H         1 <0>         0.1316
     31 H15        -3.5286   -0.8729    1.4371 H         1 <0>         0.1531
     32 H16        -5.5750   -2.0525    2.2471 H         1 <0>         0.1376
     33 H17        -5.5937   -1.8240    0.4811 H         1 <0>         0.0808
     34 H18        -4.6805   -5.3173   -0.1142 H         1 <0>         0.1371
     35 H19        -5.0570   -3.7828   -0.9356 H         1 <0>         0.0803
     36 H20        -1.3743   -4.0385   -1.3047 H         1 <0>         0.0915
     37 H21        -2.5233   -5.3929   -1.4214 H         1 <0>         0.1012
     38 H22        -2.9117   -3.8287   -2.1769 H         1 <0>         0.0880
     39 H23        -3.4219   -1.9472   -0.6901 H         1 <0>         0.4299
@<TRIPOS>BOND
     1    1    2 1
     2    1   18 1
     3    1   19 1
     4    1   20 1
     5    2    3 1
     6    2   21 1
     7    2   22 1
     8    3    4 1
     9    3    6 1
    10    3   15 1
    11    4    5 1
    12    4   23 1
    13    4   24 1
    14    5   25 1
    15    5   26 1
    16    5   27 1
    17    6    7 1
    18    6   28 1
    19    6   29 1
    20    7   12 1
    21    7    8 1
    22    7   39 1
    23    8    9 1
    24    8   30 1
    25    8   31 1
    26    9   10 1
    27    9   32 1
    28    9   33 1
    29   10   11 1
    30   11   12 1
    31   11   34 1
    32   11   35 1
    33   12   13 1
    34   12   14 1
    35   14   36 1
    36   14   37 1
    37   14   38 1
    38   15   16 2
    39   15   17 1
@<TRIPOS>MOLECULE
ZINC10197930
   33    34     0     0     0
SMALL
USER_CHARGES

@<TRIPOS>ATOM
      1 C1         -0.0157    1.3058    0.0092 C.2       1 <0>        -0.1579
      2 C2          0.0021   -0.0041    0.0020 C.2       1 <0>        -0.1839
      3 C3          1.3172   -0.7397   -0.0145 C.3       1 <0>         0.1482
      4 N1          1.3674   -1.6756    1.1115 N.am      1 <0>        -0.7251
      5 C4          2.4568   -2.4468    1.2987 C.2       1 <0>         0.5150
      6 O1          3.3955   -2.3660    0.5350 O.2       1 <0>        -0.5119
      7 C5          2.5084   -3.4095    2.4570 C.3       1 <0>         0.0398
      8 O2          3.7555   -4.1071    2.4413 O.3       1 <0>        -0.2855
      9 C6          3.9643   -5.0198    3.4265 C.ar      1 <0>         0.1269
     10 C7          2.9840   -5.2409    4.3838 C.ar      1 <0>        -0.1745
     11 C8          3.1914   -6.1681    5.3886 C.ar      1 <0>        -0.0944
     12 C9          4.3711   -6.8771    5.4454 C.ar      1 <0>        -0.0852
     13 C10         5.3703   -6.6628    4.4833 C.ar      1 <0>        -0.1535
     14 C11         5.1539   -5.7313    3.4687 C.ar      1 <0>        -0.0727
     15 C12         6.3579   -5.6839    2.5589 C.3       1 <0>        -0.0752
     16 C13         7.3600   -6.7040    3.1166 C.3       1 <0>        -0.1726
     17 C14         6.6947   -7.2899    4.3385 C.2       1 <0>         0.4082
     18 O3          7.1634   -8.1394    5.0657 O.2       1 <0>        -0.4379
     19 H1          0.9122    1.8585    0.0033 H         1 <0>         0.1017
     20 H2         -0.9582    1.8330    0.0166 H         1 <0>         0.1060
     21 H3         -0.9258   -0.5567    0.0079 H         1 <0>         0.1173
     22 H4          1.4134   -1.2911   -0.9498 H         1 <0>         0.0795
     23 H5          2.1349   -0.0241    0.0711 H         1 <0>         0.0750
     24 H6          0.6167   -1.7402    1.7223 H         1 <0>         0.4038
     25 H7          2.4122   -2.8581    3.3923 H         1 <0>         0.0957
     26 H8          1.6907   -4.1251    2.3714 H         1 <0>         0.0957
     27 H9          2.0575   -4.6875    4.3440 H         1 <0>         0.1365
     28 H10         2.4259   -6.3366    6.1316 H         1 <0>         0.1363
     29 H11         4.5277   -7.5997    6.2327 H         1 <0>         0.1328
     30 H12         6.0709   -5.9576    1.5436 H         1 <0>         0.0942
     31 H13         6.7954   -4.6856    2.5685 H         1 <0>         0.0940
     32 H14         7.5607   -7.4793    2.3772 H         1 <0>         0.1127
     33 H15         8.2860   -6.2058    3.4034 H         1 <0>         0.1110
@<TRIPOS>BOND
     1    1    2 2
     2    1   19 1
     3    1   20 1
     4    2    3 1
     5    2   21 1
     6    3    4 1
     7    3   22 1
     8    3   23 1
     9    4    5 am
    10    4   24 1
    11    5    6 2
    12    5    7 1
    13    7    8 1
    14    7   25 1
    15    7   26 1
    16    8    9 1
    17    9   14 ar
    18    9   10 ar
    19   10   11 ar
    20   10   27 1
    21   11   12 ar
    22   11   28 1
    23   12   13 ar
    24   12   29 1
    25   13   17 1
    26   13   14 ar
    27   14   15 1
    28   15   16 1
    29   15   30 1
    30   15   31 1
    31   16   17 1
    32   16   32 1
    33   16   33 1
    34   17   18 2
@<TRIPOS>MOLECULE
ZINC32112547
   41    42     0     0     0
SMALL
USER_CHARGES
(2S)-2-(2-methylanilino)-N-[[(2R)-tetrahydrofuran-2-yl]methyl]propanamide
@<TRIPOS>ATOM
      1 C1         -1.9643    2.5407    3.5640 C.3       1 <0>        -0.1096
      2 C2         -2.4267    1.2827    2.8751 C.ar      1 <0>        -0.1619
      3 C3         -3.4978    0.5716    3.3801 C.ar      1 <0>        -0.0719
      4 C4         -3.9191   -0.5858    2.7519 C.ar      1 <0>        -0.1794
      5 C5         -3.2735   -1.0327    1.6133 C.ar      1 <0>        -0.0760
      6 C6         -2.2051   -0.3241    1.1005 C.ar      1 <0>        -0.2045
      7 C7         -1.7791    0.8393    1.7292 C.ar      1 <0>         0.2262
      8 N1         -0.6984    1.5583    1.2133 N.pl3     1 <0>        -0.7426
      9 C8         -0.0127    1.0858    0.0080 C.3       1 <0>         0.1359
     10 H1         -0.0040   -0.0137    0.0409 H         1 <0>         0.1037
     11 C9         -0.7527    1.5927   -1.2315 C.3       1 <0>        -0.1644
     12 C10         1.4011    1.6074   -0.0027 C.2       1 <0>         0.5136
     13 O1          1.7969    2.3051    0.9069 O.2       1 <0>        -0.5405
     14 N2          2.2256    1.2986   -1.0231 N.am      1 <0>        -0.7309
     15 C11         3.6000    1.8057   -1.0335 C.3       1 <0>         0.1232
     16 C12         4.3162    1.3123   -2.2923 C.3       1 <0>         0.0628
     17 H2          3.7477    1.6139   -3.1844 H         1 <0>         0.0771
     18 C13         5.7660    1.8342   -2.3090 C.3       1 <0>        -0.1508
     19 C14         6.6305    0.5513   -2.3663 C.3       1 <0>        -0.1570
     20 C15         5.6256   -0.4932   -2.9155 C.3       1 <0>         0.0488
     21 O2          4.3759   -0.1239   -2.2895 O.3       1 <0>        -0.3716
     22 H3         -2.5944    2.7286    4.4459 H         1 <0>         0.0663
     23 H4         -2.0436    3.3897    2.8690 H         1 <0>         0.0624
     24 H5         -0.9173    2.4221    3.8799 H         1 <0>         0.0646
     25 H6         -4.0042    0.9179    4.2689 H         1 <0>         0.1194
     26 H7         -4.7540   -1.1423    3.1514 H         1 <0>         0.1167
     27 H8         -3.6051   -1.9372    1.1251 H         1 <0>         0.1185
     28 H9         -1.7009   -0.6740    0.2118 H         1 <0>         0.1184
     29 H10        -0.3622    2.4793    1.7120 H         1 <0>         0.4288
     30 H11        -0.2379    1.2379   -2.1365 H         1 <0>         0.0686
     31 H12        -0.7675    2.6926   -1.2254 H         1 <0>         0.0653
     32 H13        -1.7847    1.2120   -1.2237 H         1 <0>         0.0737
     33 H14         1.8666    0.6658   -1.8481 H         1 <0>         0.4274
     34 H15         3.5850    2.9056   -1.0275 H         1 <0>         0.0796
     35 H16         4.1320    1.4414   -0.1423 H         1 <0>         0.0739
     36 H17         5.9157    2.4727   -3.1921 H         1 <0>         0.0810
     37 H18         5.9556    2.4194   -1.3971 H         1 <0>         0.0825
     38 H19         7.4879    0.7165   -3.0353 H         1 <0>         0.0834
     39 H20         6.9944    0.3089   -1.3569 H         1 <0>         0.0786
     40 H21         5.5818   -0.4186   -4.0121 H         1 <0>         0.0647
     41 H22         5.9538   -1.5034   -2.6296 H         1 <0>         0.0962
@<TRIPOS>BOND
     1    1    2 1
     2    1   22 1
     3    1   23 1
     4    1   24 1
     5    2    7 ar
     6    2    3 ar
     7    3    4 ar
     8    3   25 1
     9    4    5 ar
    10    4   26 1
    11    5    6 ar
    12    5   27 1
    13    6    7 ar
    14    6   28 1
    15    7    8 1
    16    8    9 1
    17    8   29 1
    18    9   10 1
    19    9   11 1
    20    9   12 1
    21   11   30 1
    22   11   31 1
    23   11   32 1
    24   12   13 2
    25   12   14 am
    26   14   15 1
    27   14   33 1
    28   15   16 1
    29   15   34 1
    30   15   35 1
    31   16   17 1
    32   16   21 1
    33   16   18 1
    34   18   19 1
    35   18   36 1
    36   18   37 1
    37   19   20 1
    38   19   38 1
    39   19   39 1
    40   20   21 1
    41   20   40 1
    42   20   41 1
@<TRIPOS>MOLECULE
ZINC37741590
   35    36     0     0     0
SMALL
USER_CHARGES

@<TRIPOS>ATOM
      1 C1         -0.0168    1.3893    0.0097 C.ar      1 <0>        -0.2234
      2 C2          1.1807    2.0823    0.0020 C.ar      1 <0>         0.1559
      3 N1          2.3319    1.4457   -0.0129 N.ar      1 <0>        -0.4635
      4 C3          2.3988    0.1181   -0.0207 C.ar      1 <0>         0.1398
      5 C4          1.2389   -0.6495   -0.0133 C.ar      1 <0>        -0.1716
      6 C5          0.0021   -0.0041    0.0020 C.ar      1 <0>         0.3004
      7 N2         -1.1833   -0.7336    0.0099 N.pl3     1 <0>        -0.7019
      8 C6         -2.4720   -0.0372    0.0264 C.3       1 <0>         0.1055
      9 C7         -3.6065   -1.0637    0.0322 C.3       1 <0>        -0.1271
     10 C8         -4.9524   -0.3363    0.0494 C.3       1 <0>        -0.0892
     11 C9         -5.2094    0.3606   -1.3097 C.3       1 <0>        -0.1236
     12 C10        -6.7526    0.4899   -1.3412 C.3       1 <0>        -0.1269
     13 C11        -7.2552   -0.8215   -0.7027 C.3       1 <0>        -0.1273
     14 C12        -6.1106   -1.3468    0.1815 C.3       1 <0>        -0.1212
     15 C13         3.7193   -0.5492   -0.0379 C.2       1 <0>         0.5177
     16 O1          4.7422    0.1200   -0.0448 O.co2     1 <0>        -0.6444
     17 O2          3.7873   -1.7697   -0.0451 O.co2     1 <0>        -0.6203
     18 H1         -0.9559    1.9224    0.0260 H         1 <0>         0.1685
     19 H2          1.1702    3.1622    0.0079 H         1 <0>         0.1972
     20 H3          1.2948   -1.7280   -0.0200 H         1 <0>         0.1779
     21 H4         -1.1560   -1.7033    0.0044 H         1 <0>         0.4176
     22 H5         -2.5385    0.5829    0.9204 H         1 <0>         0.0764
     23 H6         -2.5561    0.5924   -0.8594 H         1 <0>         0.0779
     24 H7         -3.5400   -1.6837   -0.8619 H         1 <0>         0.0762
     25 H8         -3.5223   -1.6933    0.9180 H         1 <0>         0.0754
     26 H9         -4.9832    0.3878    0.8636 H         1 <0>         0.0793
     27 H10        -4.7389    1.3435   -1.3350 H         1 <0>         0.0660
     28 H11        -4.8568   -0.2590   -2.1343 H         1 <0>         0.0692
     29 H12        -7.0755    1.3488   -0.7529 H         1 <0>         0.0661
     30 H13        -7.1075    0.5746   -2.3683 H         1 <0>         0.0662
     31 H14        -8.1378   -0.6260   -0.0937 H         1 <0>         0.0642
     32 H15        -7.4907   -1.5487   -1.4797 H         1 <0>         0.0641
     33 H16        -5.7906   -2.3290   -0.1664 H         1 <0>         0.0659
     34 H17        -6.4377   -1.4062    1.2195 H         1 <0>         0.0653
     35 H18         3.1547    1.9594   -0.0186 H         1 <0>         0.4479
@<TRIPOS>BOND
     1    1    6 ar
     2    1    2 ar
     3    1   18 1
     4    2    3 ar
     5    2   19 1
     6    3    4 ar
     7    3   35 1
     8    4    5 ar
     9    4   15 1
    10    5    6 ar
    11    5   20 1
    12    6    7 1
    13    7    8 1
    14    7   21 1
    15    8    9 1
    16    8   22 1
    17    8   23 1
    18    9   10 1
    19    9   24 1
    20    9   25 1
    21   10   14 1
    22   10   11 1
    23   10   26 1
    24   11   12 1
    25   11   27 1
    26   11   28 1
    27   12   13 1
    28   12   29 1
    29   12   30 1
    30   13   14 1
    31   13   31 1
    32   13   32 1
    33   14   33 1
    34   14   34 1
    35   15   16 2
    36   15   17 1
@<TRIPOS>MOLECULE
ZINC41735590
   40    41     0     0     0
SMALL
USER_CHARGES

@<TRIPOS>ATOM
      1 C1          3.2306   -1.9642    0.0938 C.3       1 <0>        -0.1690
      2 C2          3.5231   -2.1326    1.5861 C.3       1 <0>        -0.1552
      3 C3          3.0304   -0.8986    2.3448 C.3       1 <0>         0.0449
      4 C4          3.1956   -1.1251    3.8489 C.3       1 <0>        -0.1635
      5 C5          1.8317   -1.0170    4.5338 C.3       1 <0>        -0.1193
      6 N1          3.8167    0.2733    1.9369 N.4       1 <0>        -0.4813
      7 C6          4.6699    0.7032    3.0528 C.3       1 <0>         0.0240
      8 C7          5.4806   -0.4906    3.5633 C.3       1 <0>        -0.2098
      9 C8          6.5548   -0.8248    2.5204 C.3       1 <0>         0.0517
     10 O1          7.4600    0.2769    2.4376 O.3       1 <0>        -0.3062
     11 C9          6.9336    1.5215    2.2982 C.ar      1 <0>         0.1509
     12 C10         5.6050    1.7874    2.5805 C.ar      1 <0>        -0.1798
     13 C11         5.1125    3.0726    2.4288 C.ar      1 <0>        -0.0525
     14 C12         5.9403    4.0898    1.9945 C.ar      1 <0>        -0.1505
     15 C13         7.2670    3.8266    1.7090 C.ar      1 <0>        -0.0641
     16 C14         7.7639    2.5479    1.8596 C.ar      1 <0>        -0.1527
     17 C15         3.8069    1.2357    4.1676 C.2       1 <0>         0.5068
     18 O2          2.5950    1.1153    4.1110 O.co2     1 <0>        -0.6545
     19 O3          4.3207    1.7869    5.1260 O.co2     1 <0>        -0.6226
     20 H1          3.5186   -0.9614   -0.2220 H         1 <0>         0.0468
     21 H2          3.7993   -2.7011   -0.4733 H         1 <0>         0.0761
     22 H3          2.1655   -2.1100   -0.0864 H         1 <0>         0.0737
     23 H4          3.0087   -3.0180    1.9596 H         1 <0>         0.1090
     24 H5          4.5969   -2.2461    1.7354 H         1 <0>         0.0811
     25 H6          1.9784   -0.7278    2.1165 H         1 <0>         0.1370
     26 H7          3.6122   -2.1172    4.0234 H         1 <0>         0.0710
     27 H8          3.8684   -0.3715    4.2581 H         1 <0>         0.1338
     28 H9          1.9651   -0.6582    5.5544 H         1 <0>         0.0618
     29 H10         1.2026   -0.3183    3.9823 H         1 <0>         0.0775
     30 H11         1.3559   -1.9974    4.5526 H         1 <0>         0.0300
     31 H12         4.3942    0.0319    1.1455 H         1 <0>         0.4004
     32 H13         5.9552   -0.2343    4.5104 H         1 <0>         0.1215
     33 H14         4.8232   -1.3490    3.7016 H         1 <0>         0.1449
     34 H15         7.0949   -1.7217    2.8239 H         1 <0>         0.1232
     35 H16         6.0862   -0.9887    1.5500 H         1 <0>         0.0544
     36 H17         4.0762    3.2807    2.6506 H         1 <0>         0.1304
     37 H18         5.5509    5.0904    1.8778 H         1 <0>         0.1320
     38 H19         7.9143    4.6211    1.3679 H         1 <0>         0.1358
     39 H20         8.8006    2.3435    1.6367 H         1 <0>         0.1368
     40 H21         3.1931    1.0243    1.6815 H         1 <0>         0.4257
@<TRIPOS>BOND
     1    1    2 1
     2    1   20 1
     3    1   21 1
     4    1   22 1
     5    2    3 1
     6    2   23 1
     7    2   24 1
     8    3    4 1
     9    3    6 1
    10    3   25 1
    11    4    5 1
    12    4   26 1
    13    4   27 1
    14    5   28 1
    15    5   29 1
    16    5   30 1
    17    6    7 1
    18    6   31 1
    19    6   40 1
    20    7   12 1
    21    7    8 1
    22    7   17 1
    23    8    9 1
    24    8   32 1
    25    8   33 1
    26    9   10 1
    27    9   34 1
    28    9   35 1
    29   10   11 1
    30   11   16 ar
    31   11   12 ar
    32   12   13 ar
    33   13   14 ar
    34   13   36 1
    35   14   15 ar
    36   14   37 1
    37   15   16 ar
    38   15   38 1
    39   16   39 1
    40   17   18 2
    41   17   19 1
@<TRIPOS>MOLECULE
ZINC48708314
   38    38     0     0     0
SMALL
USER_CHARGES

@<TRIPOS>ATOM
      1 C1         -0.0187    1.5258    0.0104 C.3       1 <0>        -0.1527
      2 C2          0.0021   -0.0041    0.0020 C.3       1 <0>        -0.0317
      3 H1          0.5293   -0.3651    0.8851 H         1 <0>         0.0916
      4 C3         -1.4333   -0.5336    0.0129 C.3       1 <0>        -0.1259
      5 C4         -2.1001   -0.1511    1.3091 C.2       1 <0>         0.5157
      6 O1         -1.4875    0.4827    2.1421 O.2       1 <0>        -0.5334
      7 N1         -3.3771   -0.5133    1.5425 N.am      1 <0>        -0.5266
      8 N2         -3.9970   -0.1577    2.7476 N.am      1 <0>        -0.5255
      9 C5         -5.2740   -0.5199    2.9810 C.2       1 <0>         0.5170
     10 O2         -5.8865   -1.1537    2.1479 O.2       1 <0>        -0.5365
     11 C6         -5.9408   -0.1373    4.2772 C.3       1 <0>        -0.1027
     12 C7         -5.9584    1.3867    4.4113 C.3       1 <0>        -0.1495
     13 C8         -7.3762   -0.6669    4.2881 C.3       1 <0>        -0.1346
     14 C9          0.7074   -0.4901   -1.2379 C.ar      1 <0>        -0.0910
     15 C10         0.2215   -0.1507   -2.4868 C.ar      1 <0>        -0.0855
     16 C11         0.8678   -0.5955   -3.6245 C.ar      1 <0>        -0.1510
     17 C12         2.0024   -1.3812   -3.5132 C.ar      1 <0>         0.0959
     18 C13         2.4882   -1.7204   -2.2618 C.ar      1 <0>        -0.1509
     19 C14         1.8432   -1.2701   -1.1254 C.ar      1 <0>        -0.0840
     20 F1          2.6347   -1.8169   -4.6247 F         1 <0>        -0.1395
     21 H2          1.0039    1.9031    0.0027 H         1 <0>         0.0588
     22 H3         -0.5459    1.8868   -0.8726 H         1 <0>         0.0528
     23 H4         -0.5289    1.8773    0.9072 H         1 <0>         0.0785
     24 H5         -1.9862   -0.1019   -0.8214 H         1 <0>         0.1028
     25 H6         -1.4207   -1.6194   -0.0826 H         1 <0>         0.1036
     26 H7         -3.8670   -1.0202    0.8762 H         1 <0>         0.4322
     27 H8         -3.5071    0.3492    3.4138 H         1 <0>         0.4320
     28 H9         -5.3879   -0.5691    5.1115 H         1 <0>         0.1044
     29 H10        -6.5113    1.8184    3.5770 H         1 <0>         0.0641
     30 H11        -6.4407    1.6634    5.3488 H         1 <0>         0.0750
     31 H12        -4.9358    1.7640    4.4036 H         1 <0>         0.0611
     32 H13        -7.3636   -1.7526    4.1925 H         1 <0>         0.0643
     33 H14        -7.8584   -0.3902    5.2256 H         1 <0>         0.0679
     34 H15        -7.9290   -0.2351    3.4538 H         1 <0>         0.0646
     35 H16        -0.6637    0.4618   -2.5734 H         1 <0>         0.1325
     36 H17         0.4878   -0.3305   -4.6001 H         1 <0>         0.1361
     37 H18         3.3729   -2.3335   -2.1737 H         1 <0>         0.1363
     38 H19         2.2245   -1.5309   -0.1492 H         1 <0>         0.1338
@<TRIPOS>BOND
     1    1    2 1
     2    1   21 1
     3    1   22 1
     4    1   23 1
     5    2    3 1
     6    2    4 1
     7    2   14 1
     8    4    5 1
     9    4   24 1
    10    4   25 1
    11    5    6 2
    12    5    7 am
    13    7    8 1
    14    7   26 1
    15    8    9 am
    16    8   27 1
    17    9   10 2
    18    9   11 1
    19   11   12 1
    20   11   13 1
    21   11   28 1
    22   12   29 1
    23   12   30 1
    24   12   31 1
    25   13   32 1
    26   13   33 1
    27   13   34 1
    28   14   19 ar
    29   14   15 ar
    30   15   16 ar
    31   15   35 1
    32   16   17 ar
    33   16   36 1
    34   17   18 ar
    35   17   20 1
    36   18   19 ar
    37   18   37 1
    38   19   38 1
@<TRIPOS>MOLECULE
ZINC58004772
   42    43     0     0     0
SMALL
USER_CHARGES

@<TRIPOS>ATOM
      1 C1          0.1482    1.4153    0.2442 C.3       1 <0>        -0.1500
      2 C2          0.0311   -0.0972    0.0461 C.3       1 <0>        -0.1395
      3 C3          0.5999   -0.4779   -1.3223 C.3       1 <0>         0.1059
      4 C4          0.4612   -1.9923   -1.5339 C.3       1 <0>         0.1001
      5 N1         -0.9754   -2.3160   -1.5043 N.pl3     1 <0>        -0.6326
      6 C5         -1.8551   -1.4467   -2.1747 C.ar      1 <0>         0.1342
      7 C6         -3.1597   -1.8392   -2.4267 C.ar      1 <0>        -0.1417
      8 C7         -4.0239   -0.9819   -3.0827 C.ar      1 <0>        -0.1323
      9 C8         -3.5846    0.2697   -3.4875 C.ar      1 <0>         0.0880
     10 C9         -2.2791    0.6643   -3.2384 C.ar      1 <0>        -0.1359
     11 C10        -1.4087   -0.1926   -2.5821 C.ar      1 <0>         0.0848
     12 O1         -0.1281    0.1997   -2.3490 O.3       1 <0>        -0.2975
     13 O2         -4.4366    1.1121   -4.1310 O.3       1 <0>        -0.4958
     14 C11        -1.4708   -3.5022   -0.8017 C.3       1 <0>         0.1356
     15 C12        -1.7936   -3.1380    0.6489 C.3       1 <0>        -0.1415
     16 C13        -2.3110   -4.3768    1.3827 C.3       1 <0>         0.0777
     17 O3         -2.6124   -4.0367    2.7375 O.3       1 <0>        -0.5744
     18 C14         2.0757   -0.0806   -1.3926 C.3       1 <0>        -0.1091
     19 C15         2.6431   -0.4664   -2.7601 C.3       1 <0>        -0.1560
     20 H1          1.2005    1.6945    0.2968 H         1 <0>         0.0574
     21 H2         -0.3226    1.9291   -0.5939 H         1 <0>         0.0609
     22 H3         -0.3500    1.7000    1.1710 H         1 <0>         0.0548
     23 H4          0.5910   -0.6105    0.8279 H         1 <0>         0.0731
     24 H5         -1.0175   -0.3904    0.0980 H         1 <0>         0.0711
     25 H6          0.8834   -2.2710   -2.4994 H         1 <0>         0.0750
     26 H7          0.9772   -2.5260   -0.7358 H         1 <0>         0.0905
     27 H8         -3.5013   -2.8140   -2.1115 H         1 <0>         0.1290
     28 H9         -5.0411   -1.2869   -3.2794 H         1 <0>         0.1296
     29 H10        -1.9401    1.6395   -3.5554 H         1 <0>         0.1351
     30 H11        -4.9339    1.6948   -3.5409 H         1 <0>         0.3870
     31 H12        -2.3726   -3.8660   -1.2942 H         1 <0>         0.0790
     32 H13        -0.7078   -4.2803   -0.8197 H         1 <0>         0.0771
     33 H14        -0.8919   -2.7741    1.1414 H         1 <0>         0.0710
     34 H15        -2.5566   -2.3598    0.6670 H         1 <0>         0.0724
     35 H16        -3.2127   -4.7407    0.8902 H         1 <0>         0.0469
     36 H17        -1.5479   -5.1550    1.3647 H         1 <0>         0.0464
     37 H18        -2.9464   -4.7760    3.2637 H         1 <0>         0.3822
     38 H19         2.1692    0.9962   -1.2511 H         1 <0>         0.0810
     39 H20         2.6293   -0.5993   -0.6100 H         1 <0>         0.0827
     40 H21         2.6465   -1.5519   -2.8589 H         1 <0>         0.0541
     41 H22         2.0249   -0.0320   -3.5457 H         1 <0>         0.0647
     42 H23         3.6622   -0.0903   -2.8499 H         1 <0>         0.0590
@<TRIPOS>BOND
     1    1    2 1
     2    1   20 1
     3    1   21 1
     4    1   22 1
     5    2    3 1
     6    2   23 1
     7    2   24 1
     8    3   12 1
     9    3    4 1
    10    3   18 1
    11    4    5 1
    12    4   25 1
    13    4   26 1
    14    5    6 1
    15    5   14 1
    16    6   11 ar
    17    6    7 ar
    18    7    8 ar
    19    7   27 1
    20    8    9 ar
    21    8   28 1
    22    9   10 ar
    23    9   13 1
    24   10   11 ar
    25   10   29 1
    26   11   12 1
    27   13   30 1
    28   14   15 1
    29   14   31 1
    30   14   32 1
    31   15   16 1
    32   15   33 1
    33   15   34 1
    34   16   17 1
    35   16   35 1
    36   16   36 1
    37   17   37 1
    38   18   19 1
    39   18   38 1
    40   18   39 1
    41   19   40 1
    42   19   41 1
    43   19   42 1
@<TRIPOS>MOLECULE
ZINC05709221
   40    41     0     0     0
SMALL
USER_CHARGES
1-(cyclopentylcarbamoyl)ethyl 4-aminobenzoate
@<TRIPOS>ATOM
      1 C1         -3.2198    2.8853   -2.6766 C.3       1 <0>        -0.1652
      2 C2         -2.0006    3.7638   -2.3890 C.3       1 <0>         0.0710
      3 H1         -1.3224    3.7345   -3.2418 H         1 <0>         0.1113
      4 C3         -1.2894    3.2504   -1.1636 C.2       1 <0>         0.5183
      5 O1         -1.2381    3.9323   -0.1619 O.2       1 <0>        -0.5142
      6 N1         -0.7102    2.0336   -1.1808 N.am      1 <0>        -0.7208
      7 C4         -0.0188    1.5345    0.0105 C.3       1 <0>         0.1406
      8 C5          1.4534    1.9953   -0.0011 C.3       1 <0>        -0.1367
      9 C6          2.2325    0.7924    0.5864 C.3       1 <0>        -0.1251
     10 C7          1.4862   -0.4246   -0.0144 C.3       1 <0>        -0.1251
     11 C8          0.0021   -0.0041    0.0020 C.3       1 <0>        -0.1316
     12 O2         -2.4324    5.1312   -2.1607 O.3       1 <0>        -0.3261
     13 C9         -2.5038    5.9381   -3.2377 C.2       1 <0>         0.5165
     14 O3         -2.2132    5.5106   -4.3375 O.2       1 <0>        -0.5156
     15 C10        -2.9343    7.3389   -3.0817 C.ar      1 <0>        -0.1957
     16 C11        -3.2746    7.8309   -1.8176 C.ar      1 <0>        -0.0050
     17 C12        -3.6697    9.1361   -1.6752 C.ar      1 <0>        -0.2154
     18 C13        -3.7429    9.9685   -2.7890 C.ar      1 <0>         0.2562
     19 C14        -3.4099    9.4804   -4.0498 C.ar      1 <0>        -0.2149
     20 C15        -3.0090    8.1777   -4.1984 C.ar      1 <0>         0.0007
     21 N2         -4.1489   11.2898   -2.6418 N.pl3     1 <0>        -0.8639
     22 H2         -2.8957    1.8588   -2.8479 H         1 <0>         0.0806
     23 H3         -3.8980    2.9146   -1.8238 H         1 <0>         0.0743
     24 H4         -3.7342    3.2566   -3.5629 H         1 <0>         0.0773
     25 H5         -0.7512    1.4882   -1.9819 H         1 <0>         0.4013
     26 H6         -0.5162    1.8962    0.9104 H         1 <0>         0.0940
     27 H7          1.7808    2.2008   -1.0203 H         1 <0>         0.0705
     28 H8          1.5822    2.8767    0.6270 H         1 <0>         0.0721
     29 H9          2.1693    0.7856    1.6746 H         1 <0>         0.0705
     30 H10         3.2720    0.8083    0.2589 H         1 <0>         0.0700
     31 H11         1.6390   -1.3091    0.6040 H         1 <0>         0.0698
     32 H12         1.8189   -0.6099   -1.0357 H         1 <0>         0.0676
     33 H13        -0.4852   -0.3890    0.8978 H         1 <0>         0.0769
     34 H14        -0.5022   -0.3794   -0.8884 H         1 <0>         0.0720
     35 H15        -3.2227    7.1845   -0.9539 H         1 <0>         0.1396
     36 H16        -3.9283    9.5179   -0.6986 H         1 <0>         0.1300
     37 H17        -3.4678   10.1286   -4.9117 H         1 <0>         0.1309
     38 H18        -2.7509    7.7997   -5.1766 H         1 <0>         0.1371
     39 H19        -4.2000   11.8707   -3.4170 H         1 <0>         0.4029
     40 H20        -4.3812   11.6309   -1.7640 H         1 <0>         0.4031
@<TRIPOS>BOND
     1    1    2 1
     2    1   22 1
     3    1   23 1
     4    1   24 1
     5    2    3 1
     6    2    4 1
     7    2   12 1
     8    4    5 2
     9    4    6 am
    10    6    7 1
    11    6   25 1
    12    7   11 1
    13    7    8 1
    14    7   26 1
    15    8    9 1
    16    8   27 1
    17    8   28 1
    18    9   10 1
    19    9   29 1
    20    9   30 1
    21   10   11 1
    22   10   31 1
    23   10   32 1
    24   11   33 1
    25   11   34 1
    26   12   13 1
    27   13   14 2
    28   13   15 1
    29   15   20 ar
    30   15   16 ar
    31   16   17 ar
    32   16   35 1
    33   17   18 ar
    34   17   36 1
    35   18   19 ar
    36   18   21 1
    37   19   20 ar
    38   19   37 1
    39   20   38 1
    40   21   39 1
    41   21   40 1
@<TRIPOS>MOLECULE
ZINC37134998
   38    38     0     0     0
SMALL
USER_CHARGES

@<TRIPOS>ATOM
      1 C1         -0.0187    1.5258    0.0104 C.3       1 <0>        -0.1755
      2 C2          0.0021   -0.0041    0.0020 C.3       1 <0>         0.1492
      3 H1          0.5293   -0.3651    0.8851 H         1 <0>         0.0800
      4 C3         -1.4333   -0.5336    0.0129 C.3       1 <0>        -0.1017
      5 C4         -1.4126   -2.0635    0.0045 C.3       1 <0>        -0.1473
      6 C5         -2.1494   -0.0402    1.2717 C.3       1 <0>        -0.1491
      7 N1          0.6878   -0.4765   -1.2033 N.pl3     1 <0>        -0.7344
      8 C6          2.0827   -0.5912   -1.2154 C.ar      1 <0>         0.1821
      9 C7          2.8173   -0.2635   -0.0851 C.ar      1 <0>        -0.0766
     10 C8          4.1947   -0.3781   -0.0994 C.ar      1 <0>        -0.6611
     11 C9          4.8433   -0.8188   -1.2381 C.ar      1 <0>        -0.0343
     12 C10         4.1176   -1.1473   -2.3684 C.ar      1 <0>        -0.1854
     13 C11         2.7367   -1.0403   -2.3606 C.ar      1 <0>         0.1136
     14 O1          2.0213   -1.3680   -3.4700 O.3       1 <0>        -0.3157
     15 C12         2.7587   -1.8209   -4.6071 C.3       1 <0>         0.0269
     16 S1          5.1262    0.0392    1.3368 S.o2      1 <0>         2.7025
     17 O2          6.4352    0.3662    0.8911 O.2       1 <0>        -0.9648
     18 O3          4.3294    0.9438    2.0891 O.2       1 <0>        -0.9648
     19 N2          5.2662   -1.3374    2.2466 N.pl3     1 <0>        -1.2506
     20 H2          1.0039    1.9031    0.0027 H         1 <0>         0.0608
     21 H3         -0.5459    1.8868   -0.8726 H         1 <0>         0.0591
     22 H4         -0.5289    1.8773    0.9072 H         1 <0>         0.0707
     23 H5         -1.9605   -0.1726   -0.8702 H         1 <0>         0.0748
     24 H6         -2.4352   -2.4408    0.0122 H         1 <0>         0.0564
     25 H7         -0.9024   -2.4150   -0.8923 H         1 <0>         0.0563
     26 H8         -0.8854   -2.4246    0.8875 H         1 <0>         0.0552
     27 H9         -2.1642    1.0497    1.2777 H         1 <0>         0.0621
     28 H10        -3.1720   -0.4175    1.2794 H         1 <0>         0.0597
     29 H11        -1.6223   -0.4013    2.1547 H         1 <0>         0.0583
     30 H12         0.1751   -0.7099   -1.9930 H         1 <0>         0.4058
     31 H13         2.3131    0.0814    0.8055 H         1 <0>         0.1475
     32 H14         5.9197   -0.9065   -1.2448 H         1 <0>         0.1427
     33 H15         4.6274   -1.4913   -3.2562 H         1 <0>         0.1391
     34 H16         3.4513   -1.0416   -4.9249 H         1 <0>         0.0591
     35 H17         3.3179   -2.7187   -4.3435 H         1 <0>         0.0589
     36 H18         2.0693   -2.0480   -5.4203 H         1 <0>         0.1035
     37 H19         4.8643   -2.1650    1.9391 H         1 <0>         0.4167
     38 H20         5.7501   -1.3163    3.0870 H         1 <0>         0.4205
@<TRIPOS>BOND
     1    1    2 1
     2    1   20 1
     3    1   21 1
     4    1   22 1
     5    2    3 1
     6    2    4 1
     7    2    7 1
     8    4    5 1
     9    4    6 1
    10    4   23 1
    11    5   24 1
    12    5   25 1
    13    5   26 1
    14    6   27 1
    15    6   28 1
    16    6   29 1
    17    7    8 1
    18    7   30 1
    19    8   13 ar
    20    8    9 ar
    21    9   10 ar
    22    9   31 1
    23   10   11 ar
    24   10   16 1
    25   11   12 ar
    26   11   32 1
    27   12   13 ar
    28   12   33 1
    29   13   14 1
    30   14   15 1
    31   15   34 1
    32   15   35 1
    33   15   36 1
    34   16   17 2
    35   16   18 2
    36   16   19 1
    37   19   37 1
    38   19   38 1
@<TRIPOS>MOLECULE
ZINC45091515
   47    48     0     0     0
SMALL
USER_CHARGES

@<TRIPOS>ATOM
      1 C1          0.0791    0.9474   -0.8595 C.3       1 <0>        -0.1519
      2 C2          0.1121   -0.5693   -0.6610 C.3       1 <0>        -0.1323
      3 C3          0.8070   -0.8954    0.6626 C.3       1 <0>        -0.0985
      4 C4          0.8400   -2.4121    0.8611 C.3       1 <0>        -0.0467
      5 H1          1.3094   -2.8815   -0.0034 H         1 <0>         0.1173
      6 C5         -0.5672   -2.9298    1.0115 C.2       1 <0>         0.3753
      7 N1         -1.0717   -3.0966    2.1890 N.2       1 <0>        -0.4084
      8 O1         -2.3940   -3.5831    2.3304 O.3       1 <0>        -0.4239
      9 N2         -1.3155   -3.2251   -0.1063 N.pl3     1 <0>        -0.8684
     10 C6          1.6309   -2.7392    2.1015 C.2       1 <0>         0.5533
     11 O2          2.1199   -1.8471    2.7617 O.2       1 <0>        -0.5254
     12 N3          1.7947   -4.0232    2.4772 N.am      1 <0>        -0.6004
     13 C7          1.2627   -5.2006    1.7673 C.3       1 <0>         0.0956
     14 C8          1.1654   -6.3053    2.8490 C.3       1 <0>        -0.1304
     15 C9          2.4316   -6.0209    3.6994 C.3       1 <0>        -0.1320
     16 C10         2.5390   -4.4818    3.6592 C.3       1 <0>         0.1484
     17 H2          2.0991   -4.0576    4.5618 H         1 <0>         0.0756
     18 C11         4.0061   -4.0626    3.5454 C.3       1 <0>        -0.1034
     19 C12         4.6354   -4.6802    2.2795 C.3       1 <0>        -0.1169
     20 C13         6.0799   -5.0376    2.7091 C.3       1 <0>        -0.1261
     21 C14         5.8906   -5.5357    4.1635 C.3       1 <0>        -0.1238
     22 C15         4.8042   -4.6065    4.7432 C.3       1 <0>        -0.1179
     23 H3          1.0982    1.3335   -0.8794 H         1 <0>         0.0570
     24 H4         -0.4160    1.1797   -1.8024 H         1 <0>         0.0561
     25 H5         -0.4686    1.4095   -0.0381 H         1 <0>         0.0553
     26 H6         -0.9070   -0.9555   -0.6411 H         1 <0>         0.0670
     27 H7          0.6598   -1.0314   -1.4823 H         1 <0>         0.0640
     28 H8          1.8261   -0.5093    0.6427 H         1 <0>         0.0865
     29 H9          0.2593   -0.4333    1.4839 H         1 <0>         0.0780
     30 H10        -2.6834   -3.6747    3.2485 H         1 <0>         0.4006
     31 H11        -0.9367   -3.0999   -0.9905 H         1 <0>         0.3974
     32 H12        -2.2213   -3.5584   -0.0095 H         1 <0>         0.4088
     33 H13         0.2764   -4.9830    1.3577 H         1 <0>         0.0766
     34 H14         1.9451   -5.5056    0.9740 H         1 <0>         0.0669
     35 H15         0.2603   -6.1896    3.4452 H         1 <0>         0.0765
     36 H16         1.2113   -7.2973    2.3996 H         1 <0>         0.0826
     37 H17         2.2967   -6.3738    4.7219 H         1 <0>         0.0811
     38 H18         3.3114   -6.4772    3.2457 H         1 <0>         0.0853
     39 H19         4.0818   -2.9759    3.5087 H         1 <0>         0.0856
     40 H20         4.0926   -5.5776    1.9826 H         1 <0>         0.0689
     41 H21         4.6477   -3.9542    1.4666 H         1 <0>         0.0584
     42 H22         6.4855   -5.8294    2.0793 H         1 <0>         0.0642
     43 H23         6.7200   -4.1557    2.6831 H         1 <0>         0.0656
     44 H24         5.5506   -6.5713    4.1708 H         1 <0>         0.0645
     45 H25         6.8191   -5.4340    4.7254 H         1 <0>         0.0640
     46 H26         5.2680   -3.7838    5.2874 H         1 <0>         0.0645
     47 H27         4.1464   -5.1692    5.4057 H         1 <0>         0.0656
@<TRIPOS>BOND
     1    1    2 1
     2    1   23 1
     3    1   24 1
     4    1   25 1
     5    2    3 1
     6    2   26 1
     7    2   27 1
     8    3    4 1
     9    3   28 1
    10    3   29 1
    11    4    5 1
    12    4    6 1
    13    4   10 1
    14    6    7 2
    15    6    9 1
    16    7    8 1
    17    8   30 1
    18    9   31 1
    19    9   32 1
    20   10   11 2
    21   10   12 am
    22   12   16 1
    23   12   13 1
    24   13   14 1
    25   13   33 1
    26   13   34 1
    27   14   15 1
    28   14   35 1
    29   14   36 1
    30   15   16 1
    31   15   37 1
    32   15   38 1
    33   16   17 1
    34   16   18 1
    35   18   22 1
    36   18   19 1
    37   18   39 1
    38   19   20 1
    39   19   40 1
    40   19   41 1
    41   20   21 1
    42   20   42 1
    43   20   43 1
    44   21   22 1
    45   21   44 1
    46   21   45 1
    47   22   46 1
    48   22   47 1
@<TRIPOS>MOLECULE
ZINC53173301
   38    38     0     0     0
SMALL
USER_CHARGES

@<TRIPOS>ATOM
      1 C1         -0.0184    1.5028    0.0103 C.3       1 <0>        -0.1202
      2 C2          0.0021   -0.0041    0.0020 C.ar      1 <0>        -0.0590
      3 C3          0.0057   -0.6882   -1.2000 C.ar      1 <0>        -0.0748
      4 C4          0.0240   -2.0707   -1.2121 C.ar      1 <0>        -0.6260
      5 C5          0.0391   -2.7732   -0.0230 C.ar      1 <0>        -0.1070
      6 C6          0.0360   -2.0893    1.1859 C.ar      1 <0>         0.2051
      7 C7          0.0228   -0.7000    1.1944 C.ar      1 <0>        -0.1038
      8 C8          0.0251    0.0464    2.5036 C.3       1 <0>        -0.1176
      9 N1          0.0513   -2.7965    2.3902 N.pl3     1 <0>        -0.7353
     10 C9          0.0706   -4.2614    2.3793 C.3       1 <0>         0.1466
     11 H1         -0.5182   -4.6262    1.5377 H         1 <0>         0.0946
     12 C10         1.5136   -4.7513    2.2427 C.3       1 <0>        -0.1669
     13 C11        -0.5257   -4.7891    3.6858 C.3       1 <0>         0.0514
     14 O1          0.3114   -4.4081    4.7795 O.3       1 <0>        -0.3881
     15 C12        -0.1582   -4.8537    6.0535 C.3       1 <0>         0.0305
     16 S1          0.0274   -2.9373   -2.7463 S.o2      1 <0>         2.6997
     17 O2         -0.5050   -4.2285   -2.4845 O.2       1 <0>        -0.9653
     18 O3         -0.5403   -2.0602   -3.7094 O.2       1 <0>        -0.9633
     19 N2          1.6101   -3.1571   -3.1810 N.pl3     1 <0>        -1.2499
     20 H2          1.0042    1.8801    0.0026 H         1 <0>         0.0754
     21 H3         -0.5455    1.8639   -0.8728 H         1 <0>         0.0726
     22 H4         -0.5286    1.8543    0.9071 H         1 <0>         0.0717
     23 H5         -0.0061   -0.1414   -2.1312 H         1 <0>         0.1390
     24 H6          0.0530   -3.8531   -0.0331 H         1 <0>         0.1401
     25 H7         -1.0019    0.2123    2.8290 H         1 <0>         0.0741
     26 H8          0.5541   -0.5398    3.2551 H         1 <0>         0.0655
     27 H9          0.5247    1.0064    2.3736 H         1 <0>         0.0762
     28 H10         0.0491   -2.3178    3.2339 H         1 <0>         0.4061
     29 H11         1.5280   -5.8412    2.2346 H         1 <0>         0.0655
     30 H12         1.9384   -4.3754    1.3120 H         1 <0>         0.0580
     31 H13         2.1024   -4.3865    3.0843 H         1 <0>         0.0697
     32 H14        -1.5214   -4.3686    3.8267 H         1 <0>         0.0575
     33 H15        -0.5932   -5.8761    3.6414 H         1 <0>         0.0670
     34 H16        -1.1463   -4.4346    6.2435 H         1 <0>         0.0421
     35 H17        -0.2181   -5.9421    6.0582 H         1 <0>         0.0435
     36 H18         0.5317   -4.5244    6.8305 H         1 <0>         0.0880
     37 H19         2.3205   -2.8235   -2.6109 H         1 <0>         0.4170
     38 H20         1.8268   -3.6195   -4.0057 H         1 <0>         0.4207
@<TRIPOS>BOND
     1    1    2 1
     2    1   20 1
     3    1   21 1
     4    1   22 1
     5    2    7 ar
     6    2    3 ar
     7    3    4 ar
     8    3   23 1
     9    4    5 ar
    10    4   16 1
    11    5    6 ar
    12    5   24 1
    13    6    7 ar
    14    6    9 1
    15    7    8 1
    16    8   25 1
    17    8   26 1
    18    8   27 1
    19    9   10 1
    20    9   28 1
    21   10   11 1
    22   10   12 1
    23   10   13 1
    24   12   29 1
    25   12   30 1
    26   12   31 1
    27   13   14 1
    28   13   32 1
    29   13   33 1
    30   14   15 1
    31   15   34 1
    32   15   35 1
    33   15   36 1
    34   16   17 2
    35   16   18 2
    36   16   19 1
    37   19   37 1
    38   19   38 1
@<TRIPOS>MOLECULE
ZINC61976623
   40    41     0     0     0
SMALL
USER_CHARGES

@<TRIPOS>ATOM
      1 C1         -1.2680    1.1817    0.1823 C.3       1 <0>        -0.1196
      2 C2         -0.5859   -0.1586    0.0848 C.ar      1 <0>        -0.1030
      3 C3         -0.5709   -0.8410   -1.1159 C.ar      1 <0>        -0.1038
      4 C4          0.0546   -2.0708   -1.2062 C.ar      1 <0>        -0.1238
      5 C5          0.6670   -2.6220   -0.0952 C.ar      1 <0>        -0.1079
      6 C6          0.6554   -1.9455    1.1083 C.ar      1 <0>        -0.1144
      7 C7          0.0334   -0.7064    1.2010 C.ar      1 <0>         0.1321
      8 N1          0.0251   -0.0162    2.4158 N.am      1 <0>        -0.6410
      9 C8         -0.0564   -0.6961    3.5767 C.2       1 <0>         0.5075
     10 O1         -0.0401   -1.9097    3.5716 O.2       1 <0>        -0.4963
     11 C9         -0.1667    0.0438    4.8693 C.2       1 <0>         0.5096
     12 O2         -0.1830    1.2573    4.8744 O.2       1 <0>        -0.5166
     13 N2         -0.2482   -0.6361    6.0302 N.am      1 <0>        -0.6897
     14 C10        -0.3565    0.0897    7.2981 C.3       1 <0>         0.0947
     15 C11        -0.4333   -0.9105    8.4534 C.3       1 <0>         0.1524
     16 C12         0.8301   -1.7733    8.4658 C.3       1 <0>        -0.1488
     17 C13        -0.5464   -0.1525    9.7776 C.3       1 <0>        -0.1913
     18 C14         0.6891   -0.1179   10.6794 C.3       1 <0>        -0.1755
     19 C15        -0.5174   -0.9752   11.0672 C.3       1 <0>        -0.1604
     20 O3         -1.5796   -1.7468    8.2839 O.3       1 <0>        -0.5497
     21 H1         -0.5539    1.9708   -0.0529 H         1 <0>         0.0745
     22 H2         -2.0972    1.2196   -0.5241 H         1 <0>         0.0742
     23 H3         -1.6464    1.3240    1.1946 H         1 <0>         0.0649
     24 H4         -1.0487   -0.4137   -1.9851 H         1 <0>         0.1284
     25 H5          0.0649   -2.6023   -2.1463 H         1 <0>         0.1257
     26 H6          1.1544   -3.5829   -0.1692 H         1 <0>         0.1277
     27 H7          1.1331   -2.3768    1.9756 H         1 <0>         0.1396
     28 H8          0.0780    0.9524    2.4237 H         1 <0>         0.4227
     29 H9         -0.2352   -1.6060    6.0261 H         1 <0>         0.4182
     30 H10         0.5179    0.7277    7.4274 H         1 <0>         0.0869
     31 H11        -1.2566    0.7044    7.2892 H         1 <0>         0.0788
     32 H12         1.7045   -1.1354    8.5951 H         1 <0>         0.0788
     33 H13         0.7754   -2.4858    9.2888 H         1 <0>         0.0721
     34 H14         0.9107   -2.3133    7.5224 H         1 <0>         0.0655
     35 H15        -1.1818    0.7330    9.7596 H         1 <0>         0.1098
     36 H16         1.5824   -0.6351   10.3294 H         1 <0>         0.1037
     37 H17         0.8667    0.7906   11.2550 H         1 <0>         0.0973
     38 H18        -1.1334   -0.6308   11.8979 H         1 <0>         0.0966
     39 H19        -0.4177   -2.0565   10.9723 H         1 <0>         0.0998
     40 H20        -2.4183   -1.2658    8.2666 H         1 <0>         0.3804
@<TRIPOS>BOND
     1    1    2 1
     2    1   21 1
     3    1   22 1
     4    1   23 1
     5    2    7 ar
     6    2    3 ar
     7    3    4 ar
     8    3   24 1
     9    4    5 ar
    10    4   25 1
    11    5    6 ar
    12    5   26 1
    13    6    7 ar
    14    6   27 1
    15    7    8 1
    16    8    9 am
    17    8   28 1
    18    9   10 2
    19    9   11 1
    20   11   12 2
    21   11   13 am
    22   13   14 1
    23   13   29 1
    24   14   15 1
    25   14   30 1
    26   14   31 1
    27   15   16 1
    28   15   17 1
    29   15   20 1
    30   16   32 1
    31   16   33 1
    32   16   34 1
    33   17   19 1
    34   17   18 1
    35   17   35 1
    36   18   19 1
    37   18   36 1
    38   18   37 1
    39   19   38 1
    40   19   39 1
    41   20   40 1
@<TRIPOS>MOLECULE
ZINC19970181
   41    41     0     0     0
SMALL
USER_CHARGES
(1S)-1-(2-ethyl-5-nitro-phenyl)-3,3-dimethyl-butan-1-amine
@<TRIPOS>ATOM
      1 C1         -0.2087    0.6104   -0.1841 C.3       1 <0>        -0.1580
      2 C2         -0.7922    1.3662    1.0113 C.3       1 <0>        -0.1059
      3 C3         -0.4591    0.6292    2.2829 C.ar      1 <0>        -0.0012
      4 C4         -1.2274   -0.4504    2.6776 C.ar      1 <0>        -0.0991
      5 C5         -0.9195   -1.1288    3.8418 C.ar      1 <0>        -0.0297
      6 C6          0.1518   -0.7229    4.6157 C.ar      1 <0>        -0.0335
      7 C7          0.9167    0.3595    4.2238 C.ar      1 <0>        -0.0615
      8 C8          0.6110    1.0358    3.0573 C.ar      1 <0>        -0.1353
      9 C9          1.4450    2.2160    2.6299 C.3       1 <0>         0.0865
     10 H1          0.8141    2.9435    2.0982 H         1 <0>         0.1555
     11 C10         2.5931    1.7340    1.7409 C.3       1 <0>        -0.1389
     12 C11         3.3969    2.9390    1.2480 C.3       1 <0>        -0.0816
     13 C12         4.2579    3.4798    2.3912 C.3       1 <0>        -0.1561
     14 C13         4.2989    2.5107    0.0887 C.3       1 <0>        -0.1493
     15 C14         2.4377    4.0314    0.7711 C.3       1 <0>        -0.1656
     16 N1          1.9929    2.8842    3.8179 N.4       1 <0>        -0.7060
     17 N2          0.4793   -1.4472    5.8644 N.pl3     1 <0>         0.0194
     18 O1          1.4228   -1.0893    6.5464 O.2       1 <0>        -0.1533
     19 O2         -0.1947   -2.4011    6.2098 O.3       1 <0>        -0.1325
     20 H2         -0.4519    1.1484   -1.1122 H         1 <0>         0.0770
     21 H3         -0.6385   -0.4014   -0.2234 H         1 <0>         0.0686
     22 H4          0.8838    0.5408   -0.0761 H         1 <0>         0.0597
     23 H5         -0.3624    2.3780    1.0506 H         1 <0>         0.0803
     24 H6         -1.8847    1.4358    0.9033 H         1 <0>         0.0986
     25 H7         -2.0662   -0.7654    2.0748 H         1 <0>         0.1613
     26 H8         -1.5173   -1.9744    4.1482 H         1 <0>         0.1668
     27 H9          1.7533    0.6769    4.8286 H         1 <0>         0.1477
     28 H10         3.2495    1.0671    2.3192 H         1 <0>         0.0957
     29 H11         2.1843    1.1881    0.8779 H         1 <0>         0.1180
     30 H12         4.8358    4.3461    2.0368 H         1 <0>         0.0931
     31 H13         4.9475    2.6944    2.7340 H         1 <0>         0.0863
     32 H14         3.6094    3.7877    3.2246 H         1 <0>         0.0390
     33 H15         4.8768    3.3770   -0.2656 H         1 <0>         0.0711
     34 H16         3.6798    2.1219   -0.7332 H         1 <0>         0.0678
     35 H17         4.9886    1.7253    0.4316 H         1 <0>         0.0659
     36 H18         3.0156    4.8977    0.4168 H         1 <0>         0.0790
     37 H19         1.7892    4.3393    1.6045 H         1 <0>         0.0457
     38 H20         1.8187    3.6425   -0.0508 H         1 <0>         0.0759
     39 H21         2.6017    3.7457    3.5060 H         1 <0>         0.4514
     40 H22         2.6198    2.1765    4.3802 H         1 <0>         0.4470
     41 H23         1.1674    3.2307    4.4571 H         1 <0>         0.4503
@<TRIPOS>BOND
     1    1    2 1
     2    1   20 1
     3    1   21 1
     4    1   22 1
     5    2    3 1
     6    2   23 1
     7    2   24 1
     8    3    8 ar
     9    3    4 ar
    10    4    5 ar
    11    4   25 1
    12    5    6 ar
    13    5   26 1
    14    6    7 ar
    15    6   17 1
    16    7    8 ar
    17    7   27 1
    18    8    9 1
    19    9   10 1
    20    9   11 1
    21    9   16 1
    22   11   12 1
    23   11   28 1
    24   11   29 1
    25   12   13 1
    26   12   14 1
    27   12   15 1
    28   13   30 1
    29   13   31 1
    30   13   32 1
    31   14   33 1
    32   14   34 1
    33   14   35 1
    34   15   36 1
    35   15   37 1
    36   15   38 1
    37   16   39 1
    38   16   40 1
    39   16   41 1
    40   17   18 2
    41   17   19 1
@<TRIPOS>MOLECULE
ZINC37268452
   47    47     0     0     0
SMALL
USER_CHARGES

@<TRIPOS>ATOM
      1 C1         -0.0690    1.4773   -0.0385 C.3       1 <0>        -0.1612
      2 C2         -0.0273   -0.0522   -0.0394 C.3       1 <0>        -0.1169
      3 C3          0.7085   -0.5430    1.2090 C.3       1 <0>        -0.0568
      4 C4          2.1366    0.0060    1.2082 C.3       1 <0>        -0.1517
      5 C5         -0.0254   -0.0535    2.4591 C.3       1 <0>        -0.1536
      6 C6          0.7501   -2.0725    1.2082 C.3       1 <0>        -0.0731
      7 H1          1.2730   -2.4212    0.3176 H         1 <0>         0.0885
      8 C7         -0.6780   -2.6215    1.2089 C.3       1 <0>        -0.1284
      9 C8         -0.6363   -4.1510    1.2081 C.3       1 <0>        -0.1106
     10 C9          0.0995   -4.6418    2.4565 C.3       1 <0>        -0.0014
     11 H2         -0.4234   -4.2931    3.3471 H         1 <0>         0.1336
     12 C10         1.5276   -4.0927    2.4557 C.3       1 <0>         0.0316
     13 H3          2.0504   -4.4415    1.5651 H         1 <0>         0.1553
     14 C11         1.4859   -2.5633    2.4566 C.3       1 <0>        -0.1446
     15 N1          2.2340   -4.5640    3.6544 N.4       1 <0>        -0.3735
     16 C12         3.6435   -4.1559    3.5843 C.3       1 <0>        -0.0623
     17 C13         1.6136   -3.9786    4.8503 C.3       1 <0>        -0.0479
     18 C14         2.2578   -4.5562    6.0842 C.2       1 <0>         0.5097
     19 O1          3.1462   -5.3749    5.9778 O.2       1 <0>        -0.5263
     20 N2          1.8466   -4.1629    7.3060 N.am      1 <0>        -0.8236
     21 C15         0.1396   -6.1133    2.4557 C.1       1 <0>         0.1525
     22 N3          0.1705   -7.2489    2.4550 N.1       1 <0>        -0.3596
     23 H4          0.9484    1.8684   -0.0391 H         1 <0>         0.0582
     24 H5         -0.5932    1.8270   -0.9279 H         1 <0>         0.0572
     25 H6         -0.5918    1.8260    0.8520 H         1 <0>         0.0584
     26 H7         -1.0447   -0.4433   -0.0388 H         1 <0>         0.0679
     27 H8          0.4955   -0.4009   -0.9300 H         1 <0>         0.0648
     28 H9          2.1069    1.0956    1.2089 H         1 <0>         0.0671
     29 H10         2.6608   -0.3437    2.0976 H         1 <0>         0.0515
     30 H11         2.6594   -0.3427    0.3177 H         1 <0>         0.0591
     31 H12        -1.0428   -0.4447    2.4596 H         1 <0>         0.0627
     32 H13         0.4988   -0.4032    3.3485 H         1 <0>         0.0509
     33 H14        -0.0551    1.0361    2.4597 H         1 <0>         0.0665
     34 H15        -1.2008   -2.2728    2.0995 H         1 <0>         0.0814
     35 H16        -1.2022   -2.2718    0.3196 H         1 <0>         0.0938
     36 H17        -1.6537   -4.5421    1.2086 H         1 <0>         0.0974
     37 H18        -0.1135   -4.4997    0.3175 H         1 <0>         0.0873
     38 H19         2.5033   -2.1721    2.4560 H         1 <0>         0.1037
     39 H20         0.9631   -2.2146    3.3471 H         1 <0>         0.0968
     40 H21         4.1898   -4.5912    4.4209 H         1 <0>         0.1441
     41 H22         4.0765   -4.5045    2.6467 H         1 <0>         0.1293
     42 H23         3.7098   -3.0690    3.6331 H         1 <0>         0.1250
     43 H24         1.7530   -2.8976    4.8398 H         1 <0>         0.1690
     44 H25         0.5479   -4.2075    4.8558 H         1 <0>         0.1600
     45 H26         1.1360   -3.5082    7.3911 H         1 <0>         0.4140
     46 H27         2.2612   -4.5347    8.1002 H         1 <0>         0.4253
     47 H28         2.1774   -5.5702    3.7043 H         1 <0>         0.4290
@<TRIPOS>BOND
     1    1    2 1
     2    1   23 1
     3    1   24 1
     4    1   25 1
     5    2    3 1
     6    2   26 1
     7    2   27 1
     8    3    4 1
     9    3    5 1
    10    3    6 1
    11    4   28 1
    12    4   29 1
    13    4   30 1
    14    5   31 1
    15    5   32 1
    16    5   33 1
    17    6    7 1
    18    6   14 1
    19    6    8 1
    20    8    9 1
    21    8   34 1
    22    8   35 1
    23    9   10 1
    24    9   36 1
    25    9   37 1
    26   10   11 1
    27   10   12 1
    28   10   21 1
    29   12   13 1
    30   12   14 1
    31   12   15 1
    32   14   38 1
    33   14   39 1
    34   15   16 1
    35   15   17 1
    36   15   47 1
    37   16   40 1
    38   16   41 1
    39   16   42 1
    40   17   18 1
    41   17   43 1
    42   17   44 1
    43   18   19 2
    44   18   20 am
    45   20   45 1
    46   20   46 1
    47   21   22 3
@<TRIPOS>MOLECULE
ZINC43334979
   46    47     0     0     0
SMALL
USER_CHARGES

@<TRIPOS>ATOM
      1 C1         -1.9395    0.4207    0.6760 C.3       1 <0>        -0.1583
      2 C2         -0.4542    0.5798    0.3448 C.3       1 <0>        -0.1163
      3 C3          0.3858   -0.0878    1.4355 C.3       1 <0>         0.0525
      4 H1          0.1271    0.3371    2.4054 H         1 <0>         0.0623
      5 C4          0.1071   -1.5931    1.4460 C.3       1 <0>         0.0628
      6 O1          0.9494   -2.2221    2.4156 O.3       1 <0>        -0.3709
      7 C5          2.3460   -2.0219    2.1813 C.3       1 <0>         0.0890
      8 H2          2.9206   -2.5070    2.9704 H         1 <0>         0.1109
      9 C6          2.6474   -0.5209    2.1783 C.3       1 <0>         0.0045
     10 N1          1.8127    0.1401    1.1646 N.3       1 <0>        -0.5045
     11 C7          2.1116    1.5765    1.0904 C.3       1 <0>         0.1521
     12 H3          1.5515    2.0222    0.2684 H         1 <0>         0.1364
     13 C8          1.7168    2.2393    2.3849 C.2       1 <0>        -0.1111
     14 C9          0.9963    3.3691    2.5025 C.2       1 <0>        -0.1778
     15 C10         0.8624    3.6274    3.8860 C.2       1 <0>        -0.2136
     16 C11         1.5091    2.6400    4.5312 C.2       1 <0>        -0.0103
     17 O2          2.0197    1.7990    3.6171 O.3       1 <0>        -0.1639
     18 C12         3.6101    1.7739    0.8526 C.3       1 <0>         0.0259
     19 H4          4.1702    1.3283    1.6746 H         1 <0>         0.1468
     20 C13         4.0109    1.1010   -0.4617 C.3       1 <0>        -0.1417
     21 C14         5.5281    1.1901   -0.6383 C.3       1 <0>        -0.1741
     22 N2          3.9090    3.2103    0.7784 N.4       1 <0>        -0.6343
     23 C15         2.7283   -2.6235    0.8275 C.3       1 <0>        -0.1806
     24 H5         -2.1307    0.8009    1.6796 H         1 <0>         0.0564
     25 H6         -2.5345    0.9818   -0.0445 H         1 <0>         0.0647
     26 H7         -2.2113   -0.6338    0.6290 H         1 <0>         0.0628
     27 H8         -0.2436    0.1088   -0.6153 H         1 <0>         0.0778
     28 H9         -0.2052    1.6397    0.2921 H         1 <0>         0.0609
     29 H10        -0.9376   -1.7680    1.7032 H         1 <0>         0.1058
     30 H11         0.3142   -2.0085    0.4597 H         1 <0>         0.0688
     31 H12         2.4256   -0.1032    3.1603 H         1 <0>         0.0707
     32 H13         3.6998   -0.3615    1.9436 H         1 <0>         0.0870
     33 H14         0.5972    3.9648    1.6949 H         1 <0>         0.1544
     34 H15         0.3412    4.4583    4.3382 H         1 <0>         0.1582
     35 H16         1.5990    2.5386    5.6027 H         1 <0>         0.2116
     36 H17         3.7084    0.0540   -0.4409 H         1 <0>         0.1267
     37 H18         3.5181    1.6051   -1.2931 H         1 <0>         0.0915
     38 H19         5.8306    2.2371   -0.6591 H         1 <0>         0.0507
     39 H20         6.0209    0.6860    0.1931 H         1 <0>         0.0712
     40 H21         5.8137    0.7107   -1.5746 H         1 <0>         0.0861
     41 H22         3.3904    3.6229    0.0175 H         1 <0>         0.4333
     42 H23         3.6446    3.6541    1.6451 H         1 <0>         0.4343
     43 H24         2.1545   -2.1370    0.0387 H         1 <0>         0.0711
     44 H25         3.7928   -2.4706    0.6496 H         1 <0>         0.0652
     45 H26         2.5100   -3.6914    0.8297 H         1 <0>         0.0665
     46 H27         4.8972    3.3405    0.6216 H         1 <0>         0.4386
@<TRIPOS>BOND
     1    1    2 1
     2    1   24 1
     3    1   25 1
     4    1   26 1
     5    2    3 1
     6    2   27 1
     7    2   28 1
     8    3    4 1
     9    3   10 1
    10    3    5 1
    11    5    6 1
    12    5   29 1
    13    5   30 1
    14    6    7 1
    15    7    8 1
    16    7    9 1
    17    7   23 1
    18    9   10 1
    19    9   31 1
    20    9   32 1
    21   10   11 1
    22   11   12 1
    23   11   13 1
    24   11   18 1
    25   13   17 1
    26   13   14 2
    27   14   15 1
    28   14   33 1
    29   15   16 2
    30   15   34 1
    31   16   17 1
    32   16   35 1
    33   18   19 1
    34   18   20 1
    35   18   22 1
    36   20   21 1
    37   20   36 1
    38   20   37 1
    39   21   38 1
    40   21   39 1
    41   21   40 1
    42   22   41 1
    43   22   42 1
    44   22   46 1
    45   23   43 1
    46   23   44 1
    47   23   45 1
@<TRIPOS>MOLECULE
ZINC50892163
   39    41     0     0     0
SMALL
USER_CHARGES

@<TRIPOS>ATOM
      1 C1         -0.2796    1.5113    2.1777 C.3       1 <0>        -0.1879
      2 C2         -0.1739   -0.0132    2.2533 C.3       1 <0>        -0.0105
      3 N1          0.8128   -0.4848    1.2724 N.4       1 <0>        -0.5080
      4 C3          0.8267   -1.9537    1.2594 C.3       1 <0>         0.0999
      5 H1         -0.1832   -2.3251    1.0855 H         1 <0>         0.1577
      6 C4          1.7502   -2.4451    0.1429 C.3       1 <0>        -0.0439
      7 C5          1.1787   -2.0468   -1.1934 C.2       1 <0>         0.1445
      8 N2          1.8248   -1.3424   -2.1474 N.pl3     1 <0>        -0.5630
      9 H2          2.7326   -1.0043   -2.0977 H         1 <0>         0.4244
     10 C6          0.9596   -1.1951   -3.1978 C.2       1 <0>        -0.0259
     11 C7         -0.1847   -1.8140   -2.8498 C.2       1 <0>        -0.0210
     12 N3         -0.0206   -2.3302   -1.6227 N.2       1 <0>        -0.4692
     13 C8          1.3277   -2.4631    2.5863 C.ar      1 <0>        -0.1766
     14 C9          2.3735   -1.8226    3.2253 C.ar      1 <0>        -0.0840
     15 C10         2.8331   -2.2822    4.4419 C.ar      1 <0>        -0.1278
     16 C11         2.2473   -3.3966    5.0376 C.ar      1 <0>         0.1421
     17 C12         1.2026   -4.0357    4.3826 C.ar      1 <0>        -0.1615
     18 C13         0.7392   -3.5697    3.1721 C.ar      1 <0>        -0.0325
     19 C14         0.7897   -5.2117    5.2465 C.3       1 <0>        -0.1169
     20 C15         1.9912   -5.3362    6.2130 C.3       1 <0>         0.0481
     21 O1          2.5311   -4.0036    6.2226 O.3       1 <0>        -0.2948
     22 H3         -0.5942    1.8045    1.1761 H         1 <0>         0.0793
     23 H4         -1.0117    1.8613    2.9054 H         1 <0>         0.1087
     24 H5          0.6918    1.9542    2.3976 H         1 <0>         0.0795
     25 H6          0.1407   -0.3063    3.2549 H         1 <0>         0.1337
     26 H7         -1.1452   -0.4561    2.0333 H         1 <0>         0.1333
     27 H8          0.5659   -0.1427    0.3559 H         1 <0>         0.4265
     28 H9          2.7367   -1.9977    0.2641 H         1 <0>         0.1024
     29 H10         1.8349   -3.5307    0.1928 H         1 <0>         0.1370
     30 H11         1.1566   -0.6809   -4.1269 H         1 <0>         0.1885
     31 H12        -1.0768   -1.8856   -3.4544 H         1 <0>         0.1811
     32 H13         2.8331   -0.9582    2.7692 H         1 <0>         0.1267
     33 H14         3.6500   -1.7758    4.9346 H         1 <0>         0.1422
     34 H15        -0.0808   -4.0701    2.6787 H         1 <0>         0.1396
     35 H16        -0.1278   -4.9911    5.7920 H         1 <0>         0.1008
     36 H17         0.6770   -6.1149    4.6468 H         1 <0>         0.1024
     37 H18         1.6569   -5.6245    7.2096 H         1 <0>         0.1181
     38 H19         2.7234   -6.0467    5.8295 H         1 <0>         0.0875
     39 H20         1.7277   -0.1420    1.5242 H         1 <0>         0.4196
@<TRIPOS>BOND
     1    1    2 1
     2    1   22 1
     3    1   23 1
     4    1   24 1
     5    2    3 1
     6    2   25 1
     7    2   26 1
     8    3    4 1
     9    3   27 1
    10    3   39 1
    11    4    5 1
    12    4    6 1
    13    4   13 1
    14    6    7 1
    15    6   28 1
    16    6   29 1
    17    7   12 2
    18    7    8 1
    19    8    9 1
    20    8   10 1
    21   10   11 2
    22   10   30 1
    23   11   12 1
    24   11   31 1
    25   13   18 ar
    26   13   14 ar
    27   14   15 ar
    28   14   32 1
    29   15   16 ar
    30   15   33 1
    31   16   21 1
    32   16   17 ar
    33   17   18 ar
    34   17   19 1
    35   18   34 1
    36   19   20 1
    37   19   35 1
    38   19   36 1
    39   20   21 1
    40   20   37 1
    41   20   38 1
@<TRIPOS>MOLECULE
ZINC62349035
   45    45     0     0     0
SMALL
USER_CHARGES

@<TRIPOS>ATOM
      1 C1          0.4300    0.4090   -0.0289 C.3       1 <0>        -0.1537
      2 C2          0.2784   -1.0900    0.2376 C.3       1 <0>        -0.1340
      3 C3          0.9001   -1.4325    1.5929 C.3       1 <0>         0.1559
      4 H1          1.9345   -1.0895    1.6153 H         1 <0>         0.0930
      5 C4          0.8604   -2.9473    1.8040 C.3       1 <0>        -0.1662
      6 N1          0.1431   -0.7709    2.6586 N.am      1 <0>        -0.7314
      7 C5          0.7386   -0.4926    3.8352 C.2       1 <0>         0.7060
      8 O1          1.9040   -0.7905    4.0122 O.2       1 <0>        -0.5691
      9 N2          0.0422    0.1161    4.8155 N.am      1 <0>        -0.7684
     10 C6          0.6895    0.4186    6.0945 C.3       1 <0>         0.1155
     11 C7         -0.3464    0.9812    7.0698 C.3       1 <0>         0.0150
     12 H2         -0.7303    1.9267    6.6867 H         1 <0>         0.1451
     13 C8          0.3090    1.2118    8.4330 C.3       1 <0>        -0.1817
     14 N3         -1.4530    0.0258    7.2139 N.4       1 <0>        -0.3812
     15 C9         -2.5110    0.6251    8.0361 C.3       1 <0>        -0.0113
     16 C10        -3.7002   -0.3340    8.1222 C.3       1 <0>        -0.1454
     17 C11        -3.2424   -1.6505    8.7566 C.3       1 <0>        -0.1392
     18 C12        -2.0887   -2.2290    7.9323 C.3       1 <0>        -0.1438
     19 C13        -0.9592   -1.1997    7.8532 C.3       1 <0>        -0.0179
     20 H3          1.4880    0.6713   -0.0377 H         1 <0>         0.0579
     21 H4         -0.0129    0.6530   -0.9945 H         1 <0>         0.0609
     22 H5         -0.0770    0.9706    0.7557 H         1 <0>         0.0500
     23 H6         -0.7795   -1.3522    0.2464 H         1 <0>         0.0688
     24 H7          0.7855   -1.6515   -0.5471 H         1 <0>         0.0859
     25 H8         -0.1740   -3.2903    1.7817 H         1 <0>         0.0567
     26 H9          1.4236   -3.4395    1.0112 H         1 <0>         0.0725
     27 H10         1.3033   -3.1913    2.7696 H         1 <0>         0.0600
     28 H11        -0.7866   -0.5332    2.5173 H         1 <0>         0.3957
     29 H12        -0.8876    0.3537    4.6743 H         1 <0>         0.3896
     30 H13         1.1205   -0.4930    6.5082 H         1 <0>         0.0968
     31 H14         1.4780    1.1546    5.9375 H         1 <0>         0.1115
     32 H15         0.6928    0.2664    8.8161 H         1 <0>         0.0873
     33 H16         1.1300    1.9207    8.3261 H         1 <0>         0.1108
     34 H17        -0.4290    1.6127    9.1278 H         1 <0>         0.0887
     35 H18        -2.1268    0.8177    9.0378 H         1 <0>         0.1324
     36 H19        -2.8335    1.5635    7.5850 H         1 <0>         0.1304
     37 H20        -4.4839    0.1120    8.7345 H         1 <0>         0.1135
     38 H21        -4.0853   -0.5271    7.1209 H         1 <0>         0.0863
     39 H22        -2.9048   -1.4656    9.7764 H         1 <0>         0.0828
     40 H23        -4.0721   -2.3572    8.7686 H         1 <0>         0.0949
     41 H24        -1.7205   -3.1375    8.4089 H         1 <0>         0.1129
     42 H25        -2.4403   -2.4614    6.9271 H         1 <0>         0.0854
     43 H26        -0.1361   -1.6084    7.2672 H         1 <0>         0.1308
     44 H27        -0.6081   -0.9682    8.8589 H         1 <0>         0.1347
     45 H28        -1.8239   -0.1975    6.3025 H         1 <0>         0.4157
@<TRIPOS>BOND
     1    1    2 1
     2    1   20 1
     3    1   21 1
     4    1   22 1
     5    2    3 1
     6    2   23 1
     7    2   24 1
     8    3    4 1
     9    3    5 1
    10    3    6 1
    11    5   25 1
    12    5   26 1
    13    5   27 1
    14    6    7 am
    15    6   28 1
    16    7    8 2
    17    7    9 am
    18    9   10 1
    19    9   29 1
    20   10   11 1
    21   10   30 1
    22   10   31 1
    23   11   12 1
    24   11   13 1
    25   11   14 1
    26   13   32 1
    27   13   33 1
    28   13   34 1
    29   14   19 1
    30   14   15 1
    31   14   45 1
    32   15   16 1
    33   15   35 1
    34   15   36 1
    35   16   17 1
    36   16   37 1
    37   16   38 1
    38   17   18 1
    39   17   39 1
    40   17   40 1
    41   18   19 1
    42   18   41 1
    43   18   42 1
    44   19   43 1
    45   19   44 1
@<TRIPOS>MOLECULE
ZINC20584911
   38    39     0     0     0
SMALL
USER_CHARGES
2-chloro-N-(3,4,5-trimethoxyphenyl)benzene-1,4-diamine
@<TRIPOS>ATOM
      1 C1          0.7544    1.4279    1.3566 C.3       1 <0>         0.0209
      2 O1         -0.1083    2.0486    2.3119 O.3       1 <0>        -0.2995
      3 C2         -0.4523    3.3442    2.0831 C.ar      1 <0>         0.1777
      4 C3          0.0308    4.0021    0.9628 C.ar      1 <0>        -0.2707
      5 C4         -0.3208    5.3249    0.7287 C.ar      1 <0>         0.2555
      6 C5         -1.1562    5.9895    1.6168 C.ar      1 <0>        -0.2746
      7 C6         -1.6403    5.3325    2.7372 C.ar      1 <0>         0.1763
      8 C7         -1.2930    4.0070    2.9692 C.ar      1 <0>         0.0005
      9 O2         -1.7725    3.3593    4.0671 O.3       1 <0>        -0.3101
     10 C8         -0.9897    3.4377    5.2600 C.3       1 <0>         0.0312
     11 O3         -2.4587    5.9834    3.6066 O.3       1 <0>        -0.2989
     12 C9         -2.7781    7.3427    3.3031 C.3       1 <0>         0.0206
     13 N1          0.1671    5.9885   -0.4021 N.pl3     1 <0>        -0.6949
     14 C10        -0.6818    6.8139   -1.1504 C.ar      1 <0>         0.1497
     15 C11        -2.0407    6.8511   -0.8676 C.ar      1 <0>        -0.1249
     16 C12        -2.8776    7.6652   -1.6050 C.ar      1 <0>        -0.1565
     17 C13        -2.3606    8.4471   -2.6298 C.ar      1 <0>         0.2015
     18 C14        -1.0018    8.4106   -2.9133 C.ar      1 <0>        -0.1590
     19 C15        -0.1631    7.6001   -2.1723 C.ar      1 <0>        -0.0438
     20 Cl1         1.5368    7.5594   -2.5216 Cl        1 <0>        -0.0692
     21 N2         -3.2094    9.2724   -3.3765 N.pl3     1 <0>        -0.9003
     22 H1          0.9511    0.3892    1.6607 H         1 <0>         0.1052
     23 H2          1.7038    1.9812    1.3060 H         1 <0>         0.0580
     24 H3          0.2723    1.4355    0.3679 H         1 <0>         0.0596
     25 H4          0.6811    3.4860    0.2721 H         1 <0>         0.1373
     26 H5         -1.4290    7.0184    1.4344 H         1 <0>         0.1413
     27 H6         -1.4881    2.8753    6.0633 H         1 <0>         0.0926
     28 H7         -0.8840    4.4905    5.5606 H         1 <0>         0.0436
     29 H8          0.0056    3.0077    5.0743 H         1 <0>         0.0435
     30 H9         -3.4424    7.7459    4.0816 H         1 <0>         0.1054
     31 H10        -3.2844    7.3914    2.3278 H         1 <0>         0.0591
     32 H11        -1.8533    7.9372    3.2663 H         1 <0>         0.0581
     33 H12         1.2174    5.8621   -0.7036 H         1 <0>         0.4333
     34 H13        -2.4432    6.2435   -0.0706 H         1 <0>         0.1390
     35 H14        -3.9345    7.6941   -1.3845 H         1 <0>         0.1267
     36 H15        -0.5998    9.0189   -3.7100 H         1 <0>         0.1313
     37 H16        -2.8001    9.8918   -4.1882 H         1 <0>         0.4167
     38 H17        -4.2858    9.3016   -3.1516 H         1 <0>         0.4177
@<TRIPOS>BOND
     1    1    2 1
     2    1   22 1
     3    1   23 1
     4    1   24 1
     5    2    3 1
     6    3    8 ar
     7    3    4 ar
     8    4    5 ar
     9    4   25 1
    10    5    6 ar
    11    5   13 1
    12    6    7 ar
    13    6   26 1
    14    7    8 ar
    15    7   11 1
    16    8    9 1
    17    9   10 1
    18   10   27 1
    19   10   28 1
    20   10   29 1
    21   11   12 1
    22   12   30 1
    23   12   31 1
    24   12   32 1
    25   13   14 1
    26   13   33 1
    27   14   19 ar
    28   14   15 ar
    29   15   16 ar
    30   15   34 1
    31   16   17 ar
    32   16   35 1
    33   17   18 ar
    34   17   21 1
    35   18   19 ar
    36   18   36 1
    37   19   20 1
    38   21   37 1
    39   21   38 1
@<TRIPOS>MOLECULE
ZINC40347528
   38    39     0     0     0
SMALL
USER_CHARGES

@<TRIPOS>ATOM
      1 C1         -0.0184    1.5028    0.0103 C.3       1 <0>        -0.1338
      2 C2          0.0021   -0.0041    0.0020 C.ar      1 <0>        -0.0320
      3 C3          0.0057   -0.6874   -1.2004 C.ar      1 <0>        -0.1005
      4 C4          0.0244   -2.0681   -1.2116 C.ar      1 <0>        -0.1335
      5 C5          0.0396   -2.7708   -0.0132 C.ar      1 <0>         0.1897
      6 C6          0.0359   -2.0814    1.1925 C.ar      1 <0>        -0.0567
      7 C7          0.0229   -0.7002    1.1965 C.ar      1 <0>        -0.6370
      8 S1          0.0254    0.1755    2.7254 S.o2      1 <0>         2.6936
      9 O1          0.5974   -0.6956    3.6915 O.2       1 <0>        -0.9525
     10 O2          0.5562    1.4654    2.4538 O.2       1 <0>        -0.9513
     11 N1         -1.5556    0.3974    3.1653 N.pl3     1 <0>        -1.1183
     12 C8         -2.3952   -0.7589    3.4883 C.3       1 <0>         0.1170
     13 C9         -3.6594   -0.2859    4.2086 C.3       1 <0>        -0.0449
     14 C10        -4.5231   -1.4753    4.5409 C.2       1 <0>        -0.0183
     15 C11        -4.4686   -2.1944    5.6764 C.2       1 <0>        -0.2006
     16 C12        -5.4475   -3.2085    5.5664 C.2       1 <0>        -0.2138
     17 C13        -6.0417   -3.0485    4.3702 C.2       1 <0>        -0.0379
     18 O3         -5.4817   -1.9937    3.7559 O.3       1 <0>        -0.1751
     19 C14         0.0518   -2.8394    2.4949 C.3       1 <0>        -0.1376
     20 N2          0.0581   -4.1674   -0.0209 N.pl3     1 <0>        -0.8766
     21 H1          1.0042    1.8801    0.0026 H         1 <0>         0.0871
     22 H2         -0.5455    1.8639   -0.8728 H         1 <0>         0.0697
     23 H3         -0.5286    1.8543    0.9071 H         1 <0>         0.0802
     24 H4         -0.0065   -0.1406   -2.1317 H         1 <0>         0.1317
     25 H5          0.0269   -2.6011   -2.1509 H         1 <0>         0.1285
     26 H6         -1.9258    1.2929    3.2091 H         1 <0>         0.4206
     27 H7         -2.6724   -1.2748    2.5689 H         1 <0>         0.0720
     28 H8         -1.8421   -1.4403    4.1347 H         1 <0>         0.0882
     29 H9         -3.3822    0.2300    5.1280 H         1 <0>         0.1050
     30 H10        -4.2125    0.3955    3.5622 H         1 <0>         0.0918
     31 H11        -3.8041   -2.0292    6.5115 H         1 <0>         0.1504
     32 H12        -5.6745   -3.9665    6.3015 H         1 <0>         0.1496
     33 H13        -6.8370   -3.6618    3.9730 H         1 <0>         0.2035
     34 H14         1.0832   -3.0085    2.8043 H         1 <0>         0.0893
     35 H15        -0.4663   -2.2598    3.2590 H         1 <0>         0.0869
     36 H16        -0.4499   -3.7980    2.3635 H         1 <0>         0.0653
     37 H17         0.0603   -4.6478   -0.8636 H         1 <0>         0.3999
     38 H18         0.0687   -4.6569    0.8164 H         1 <0>         0.4004
@<TRIPOS>BOND
     1    1    2 1
     2    1   21 1
     3    1   22 1
     4    1   23 1
     5    2    7 ar
     6    2    3 ar
     7    3    4 ar
     8    3   24 1
     9    4    5 ar
    10    4   25 1
    11    5    6 ar
    12    5   20 1
    13    6    7 ar
    14    6   19 1
    15    7    8 1
    16    8    9 2
    17    8   10 2
    18    8   11 1
    19   11   12 1
    20   11   26 1
    21   12   13 1
    22   12   27 1
    23   12   28 1
    24   13   14 1
    25   13   29 1
    26   13   30 1
    27   14   18 1
    28   14   15 2
    29   15   16 1
    30   15   31 1
    31   16   17 2
    32   16   32 1
    33   17   18 1
    34   17   33 1
    35   19   34 1
    36   19   35 1
    37   19   36 1
    38   20   37 1
    39   20   38 1
@<TRIPOS>MOLECULE
ZINC44791935
   49    49     0     0     0
SMALL
USER_CHARGES

@<TRIPOS>ATOM
      1 C1          0.0869    1.4957    0.5687 C.3       1 <0>        -0.1608
      2 C2          0.1710    0.0170    0.1851 C.3       1 <0>         0.1304
      3 H1          0.6175   -0.0767   -0.8049 H         1 <0>         0.1069
      4 C3          1.0343   -0.7265    1.2063 C.3       1 <0>        -0.1259
      5 C4          1.2216   -2.1768    0.7563 C.3       1 <0>        -0.0926
      6 C5          2.0210   -2.2069   -0.5479 C.3       1 <0>        -0.1517
      7 C6          1.9784   -2.9523    1.8364 C.3       1 <0>        -0.1475
      8 N1         -1.1750   -0.5611    0.1705 N.am      1 <0>        -0.5964
      9 C7         -1.9870   -0.5575    1.3898 C.3       1 <0>         0.0555
     10 C8         -1.6663   -1.0963   -0.9647 C.2       1 <0>         0.5324
     11 O1         -0.9590   -1.1928   -1.9452 O.2       1 <0>        -0.5179
     12 C9         -3.0944   -1.5748   -1.0157 C.3       1 <0>        -0.0148
     13 C10        -3.5142   -1.7727   -2.4736 C.3       1 <0>        -0.0897
     14 C11        -2.6040   -2.8131   -3.1296 C.3       1 <0>        -0.1410
     15 C12        -2.7240   -4.1411   -2.3795 C.3       1 <0>        -0.1189
     16 C13        -2.3043   -3.9431   -0.9216 C.3       1 <0>        -0.1244
     17 C14        -3.2144   -2.9028   -0.2656 C.3       1 <0>        -0.0998
     18 C15        -3.9908   -0.5501   -0.3696 C.2       1 <0>         0.3822
     19 N2         -4.7934   -0.9010    0.5799 N.2       1 <0>        -0.4183
     20 O2         -5.6357    0.0618    1.1870 O.3       1 <0>        -0.4254
     21 N3         -3.9544    0.7605   -0.7913 N.pl3     1 <0>        -0.8661
     22 H2          1.0883    1.9258    0.5796 H         1 <0>         0.0689
     23 H3         -0.5282    2.0254   -0.1588 H         1 <0>         0.0574
     24 H4         -0.3596    1.5894    1.5587 H         1 <0>         0.0575
     25 H5          2.0073   -0.2410    1.2816 H         1 <0>         0.0752
     26 H6          0.5430   -0.7085    2.1791 H         1 <0>         0.0658
     27 H7          0.2462   -2.6360    0.5953 H         1 <0>         0.0676
     28 H8          2.9963   -1.7477   -0.3869 H         1 <0>         0.0511
     29 H9          2.1544   -3.2401   -0.8685 H         1 <0>         0.0515
     30 H10         1.4818   -1.6544   -1.3174 H         1 <0>         0.0660
     31 H11         1.4089   -2.9308    2.7655 H         1 <0>         0.0517
     32 H12         2.1118   -3.9855    1.5158 H         1 <0>         0.0542
     33 H13         2.9537   -2.4930    1.9974 H         1 <0>         0.0538
     34 H14        -2.5451    0.3767    1.4519 H         1 <0>         0.0563
     35 H15        -2.6833   -1.3957    1.3652 H         1 <0>         0.0940
     36 H16        -1.3368   -0.6508    2.2597 H         1 <0>         0.0714
     37 H17        -4.5471   -2.1188   -2.5105 H         1 <0>         0.0731
     38 H18        -3.4287   -0.8266   -3.0080 H         1 <0>         0.0674
     39 H19        -2.9031   -2.9541   -4.1683 H         1 <0>         0.0621
     40 H20        -1.5711   -2.4670   -3.0927 H         1 <0>         0.1093
     41 H21        -3.7570   -4.4872   -2.4164 H         1 <0>         0.0599
     42 H22        -2.0757   -4.8823   -2.8468 H         1 <0>         0.0638
     43 H23        -2.3898   -4.8893   -0.3872 H         1 <0>         0.0697
     44 H24        -1.2713   -3.5971   -0.8847 H         1 <0>         0.0645
     45 H25        -2.9153   -2.7618    0.7731 H         1 <0>         0.0790
     46 H26        -4.2473   -3.2489   -0.3025 H         1 <0>         0.0874
     47 H27        -6.2001   -0.2947    1.8867 H         1 <0>         0.4003
     48 H28        -3.4069    1.0101   -1.5522 H         1 <0>         0.3960
     49 H29        -4.4763    1.4339   -0.3276 H         1 <0>         0.4089
@<TRIPOS>BOND
     1    1    2 1
     2    1   22 1
     3    1   23 1
     4    1   24 1
     5    2    3 1
     6    2    4 1
     7    2    8 1
     8    4    5 1
     9    4   25 1
    10    4   26 1
    11    5    6 1
    12    5    7 1
    13    5   27 1
    14    6   28 1
    15    6   29 1
    16    6   30 1
    17    7   31 1
    18    7   32 1
    19    7   33 1
    20    8    9 1
    21    8   10 am
    22    9   34 1
    23    9   35 1
    24    9   36 1
    25   10   11 2
    26   10   12 1
    27   12   17 1
    28   12   13 1
    29   12   18 1
    30   13   14 1
    31   13   37 1
    32   13   38 1
    33   14   15 1
    34   14   39 1
    35   14   40 1
    36   15   16 1
    37   15   41 1
    38   15   42 1
    39   16   17 1
    40   16   43 1
    41   16   44 1
    42   17   45 1
    43   17   46 1
    44   18   19 2
    45   18   21 1
    46   19   20 1
    47   20   47 1
    48   21   48 1
    49   21   49 1
@<TRIPOS>MOLECULE
ZINC50349282
   49    49     0     0     0
SMALL
USER_CHARGES

@<TRIPOS>ATOM
      1 C1         -0.6266    1.4825   -0.4729 C.3       1 <0>        -0.1503
      2 C2         -0.2379    0.0231   -0.2276 C.3       1 <0>        -0.1220
      3 C3          0.3508   -0.5701   -1.5092 C.3       1 <0>        -0.1004
      4 C4          0.7395   -2.0295   -1.2639 C.3       1 <0>        -0.0487
      5 H1          1.4019   -2.0888   -0.4003 H         1 <0>         0.1136
      6 C5         -0.5018   -2.8427   -1.0017 C.2       1 <0>         0.3859
      7 N1         -1.6423   -2.4473   -1.4621 N.2       1 <0>        -0.4013
      8 O1         -2.8087   -3.2115   -1.2157 O.3       1 <0>        -0.4265
      9 N2         -0.4205   -4.0074   -0.2713 N.pl3     1 <0>        -0.8699
     10 C6          1.4479   -2.5716   -2.4786 C.2       1 <0>         0.5236
     11 O2          0.8325   -3.2133   -3.3034 O.2       1 <0>        -0.5206
     12 N3          2.7653   -2.3433   -2.6482 N.am      1 <0>        -0.6087
     13 C7          3.5481   -1.6662   -1.6053 C.3       1 <0>         0.1003
     14 C8          4.2755   -0.4723   -2.2318 C.3       1 <0>        -0.1353
     15 C9          5.1029   -0.9536   -3.4259 C.3       1 <0>        -0.0755
     16 C10         4.1747   -1.5611   -4.4802 C.3       1 <0>        -0.1334
     17 C11         3.4473   -2.7723   -3.8768 C.3       1 <0>         0.1114
     18 C12         5.8581    0.2304   -4.0331 C.3       1 <0>        -0.0635
     19 C13         6.7874    0.8369   -2.9798 C.3       1 <0>        -0.1446
     20 C14         6.6854   -0.2504   -5.2269 C.3       1 <0>        -0.1454
     21 C15         4.8566    1.2888   -4.4998 C.3       1 <0>        -0.1464
     22 H2          0.2575    2.0501   -0.7633 H         1 <0>         0.0535
     23 H3         -1.3682    1.5319   -1.2701 H         1 <0>         0.0566
     24 H4         -1.0459    1.9051    0.4401 H         1 <0>         0.0551
     25 H5          0.5038   -0.0262    0.5697 H         1 <0>         0.0594
     26 H6         -1.1219   -0.5445    0.0629 H         1 <0>         0.0697
     27 H7         -0.3908   -0.5208   -2.3065 H         1 <0>         0.0881
     28 H8          1.2348   -0.0026   -1.7997 H         1 <0>         0.0742
     29 H9         -3.6130   -2.8363   -1.5996 H         1 <0>         0.3996
     30 H10         0.4358   -4.3043    0.0744 H         1 <0>         0.3938
     31 H11        -1.2195   -4.5309   -0.1025 H         1 <0>         0.4087
     32 H12         2.8812   -1.3154   -0.8177 H         1 <0>         0.0868
     33 H13         4.2774   -2.3601   -1.1874 H         1 <0>         0.0730
     34 H14         3.5448    0.2632   -2.5683 H         1 <0>         0.0735
     35 H15         4.9346   -0.0187   -1.4916 H         1 <0>         0.0811
     36 H16         5.8167   -1.7071   -3.0930 H         1 <0>         0.0726
     37 H17         3.4449   -0.8153   -4.7955 H         1 <0>         0.0718
     38 H18         4.7621   -1.8824   -5.3403 H         1 <0>         0.0792
     39 H19         4.1686   -3.5545   -3.6403 H         1 <0>         0.0682
     40 H20         2.7139   -3.1516   -4.5884 H         1 <0>         0.0924
     41 H21         7.5008    0.0829   -2.6473 H         1 <0>         0.0543
     42 H22         7.3254    1.6804   -3.4124 H         1 <0>         0.0545
     43 H23         6.1980    1.1795   -2.1293 H         1 <0>         0.0577
     44 H24         6.0233   -0.6825   -5.9773 H         1 <0>         0.0579
     45 H25         7.2234    0.5931   -5.6595 H         1 <0>         0.0546
     46 H26         7.3988   -1.0045   -4.8945 H         1 <0>         0.0544
     47 H27         4.2672    1.6314   -3.6493 H         1 <0>         0.0569
     48 H28         5.3946    2.1324   -4.9324 H         1 <0>         0.0533
     49 H29         4.1946    0.8568   -5.2502 H         1 <0>         0.0571
@<TRIPOS>BOND
     1    1    2 1
     2    1   22 1
     3    1   23 1
     4    1   24 1
     5    2    3 1
     6    2   25 1
     7    2   26 1
     8    3    4 1
     9    3   27 1
    10    3   28 1
    11    4    5 1
    12    4    6 1
    13    4   10 1
    14    6    7 2
    15    6    9 1
    16    7    8 1
    17    8   29 1
    18    9   30 1
    19    9   31 1
    20   10   11 2
    21   10   12 am
    22   12   17 1
    23   12   13 1
    24   13   14 1
    25   13   32 1
    26   13   33 1
    27   14   15 1
    28   14   34 1
    29   14   35 1
    30   15   16 1
    31   15   18 1
    32   15   36 1
    33   16   17 1
    34   16   37 1
    35   16   38 1
    36   17   39 1
    37   17   40 1
    38   18   19 1
    39   18   20 1
    40   18   21 1
    41   19   41 1
    42   19   42 1
    43   19   43 1
    44   20   44 1
    45   20   45 1
    46   20   46 1
    47   21   47 1
    48   21   48 1
    49   21   49 1
@<TRIPOS>MOLECULE
ZINC63840115
   39    40     0     0     0
SMALL
USER_CHARGES

@<TRIPOS>ATOM
      1 C1         -0.0187    1.5258    0.0104 C.3       1 <0>        -0.1543
      2 C2          0.0021   -0.0041    0.0020 C.3       1 <0>        -0.1219
      3 C3          0.7182   -0.4975   -1.2568 C.3       1 <0>        -0.1028
      4 C4          0.7386   -2.0043   -1.2651 C.2       1 <0>        -0.0534
      5 C5          0.2510   -2.6702   -2.3079 C.2       1 <0>        -0.2269
      6 C6          0.2710   -4.1411   -2.3160 C.2       1 <0>         0.5494
      7 O1          0.7334   -4.7482   -1.3691 O.2       1 <0>        -0.5437
      8 N1         -0.2232   -4.8159   -3.3728 N.am      1 <0>        -0.7229
      9 C7         -0.2033   -6.2808   -3.3809 C.3       1 <0>         0.1875
     10 C8          1.1542   -6.7696   -3.8898 C.3       1 <0>        -0.1595
     11 C9         -1.2935   -6.7930   -4.2865 C.ar      1 <0>        -0.0820
     12 C10        -1.5464   -6.1558   -5.4893 C.ar      1 <0>        -0.1028
     13 C11        -2.5434   -6.6177   -6.3260 C.ar      1 <0>        -0.0977
     14 C12        -3.2941   -7.7245   -5.9597 C.ar      1 <0>         0.0911
     15 C13        -3.0390   -8.3671   -4.7466 C.ar      1 <0>         0.0948
     16 C14        -2.0322   -7.8994   -3.9157 C.ar      1 <0>        -0.0909
     17 N2         -3.9374   -9.4277   -4.6562 N.am      1 <0>        -0.6415
     18 H1         -4.0004  -10.0571   -3.9208 H         1 <0>         0.4373
     19 C15        -4.7036   -9.4301   -5.7633 C.2       1 <0>         0.6844
     20 O2         -5.5908  -10.2287   -5.9998 O.2       1 <0>        -0.5517
     21 N3         -4.3395   -8.4145   -6.5687 N.am      1 <0>        -0.6417
     22 H2         -4.7375   -8.2000   -7.4269 H         1 <0>         0.4370
     23 H3          1.0039    1.9031    0.0027 H         1 <0>         0.0557
     24 H4         -0.5459    1.8868   -0.8726 H         1 <0>         0.0549
     25 H5         -0.5289    1.8773    0.9072 H         1 <0>         0.0569
     26 H6          0.5293   -0.3651    0.8851 H         1 <0>         0.0665
     27 H7         -1.0205   -0.3814    0.0098 H         1 <0>         0.0646
     28 H8          0.1910   -0.1364   -2.1398 H         1 <0>         0.0733
     29 H9          1.7408   -0.1202   -1.2645 H         1 <0>         0.0843
     30 H10         1.1493   -2.5434   -0.4242 H         1 <0>         0.1273
     31 H11        -0.1596   -2.1311   -3.1488 H         1 <0>         0.1263
     32 H12        -0.5920   -4.3317   -4.1281 H         1 <0>         0.4011
     33 H13        -0.3672   -6.6519   -2.3692 H         1 <0>         0.0991
     34 H14         1.1690   -7.8595   -3.8958 H         1 <0>         0.0694
     35 H15         1.3180   -6.3985   -4.9015 H         1 <0>         0.0609
     36 H16         1.9427   -6.3992   -3.2348 H         1 <0>         0.0667
     37 H17        -0.9619   -5.2936   -5.7743 H         1 <0>         0.1333
     38 H18        -2.7380   -6.1179   -7.2633 H         1 <0>         0.1358
     39 H19        -1.8291   -8.3965   -2.9787 H         1 <0>         0.1360
@<TRIPOS>BOND
     1    1    2 1
     2    1   23 1
     3    1   24 1
     4    1   25 1
     5    2    3 1
     6    2   26 1
     7    2   27 1
     8    3    4 1
     9    3   28 1
    10    3   29 1
    11    4    5 2
    12    4   30 1
    13    5    6 1
    14    5   31 1
    15    6    7 2
    16    6    8 am
    17    8    9 1
    18    8   32 1
    19    9   10 1
    20    9   11 1
    21    9   33 1
    22   10   34 1
    23   10   35 1
    24   10   36 1
    25   11   16 ar
    26   11   12 ar
    27   12   13 ar
    28   12   37 1
    29   13   14 ar
    30   13   38 1
    31   14   21 1
    32   14   15 ar
    33   15   16 ar
    34   15   17 1
    35   16   39 1
    36   17   18 1
    37   17   19 am
    38   19   20 2
    39   19   21 am
    40   21   22 1
@<TRIPOS>MOLECULE
ZINC21297171
   38    39     0     0     0
SMALL
USER_CHARGES
1-(2,3-dimethylphenyl)-3-[(5-methylfuran-2-carbonyl)amino]thiourea
@<TRIPOS>ATOM
      1 C1         -7.9985    4.4198    0.9358 C.3       1 <0>        -0.1141
      2 C2         -7.7277    3.0445    0.3825 C.ar      1 <0>        -0.0827
      3 C3         -8.7480    2.3272   -0.2154 C.ar      1 <0>        -0.1081
      4 C4         -8.5036    1.0650   -0.7243 C.ar      1 <0>        -0.1116
      5 C5         -7.2389    0.5165   -0.6370 C.ar      1 <0>        -0.0744
      6 C6         -6.2124    1.2340   -0.0374 C.ar      1 <0>         0.1316
      7 C7         -6.4624    2.4996    0.4776 C.ar      1 <0>        -0.0888
      8 C8         -5.3528    3.2793    1.1348 C.3       1 <0>        -0.1136
      9 N1         -4.9306    0.6811    0.0531 N.pl3     1 <0>        -0.6415
     10 C9         -4.7756   -0.6023    0.4343 C.2       1 <0>         0.5622
     11 S1         -6.1325   -1.5141    0.9425 S.2       1 <0>        -0.5768
     12 N2         -3.5524   -1.1679    0.4153 N.pl3     1 <0>        -0.4735
     13 N3         -2.4420   -0.4217   -0.0006 N.am      1 <0>        -0.5522
     14 C10        -1.2188   -0.9873   -0.0195 C.2       1 <0>         0.6198
     15 O1         -1.0788   -2.1461    0.3247 O.2       1 <0>        -0.5057
     16 C11        -0.0564   -0.2062   -0.4549 C.2       1 <0>        -0.0935
     17 C12         1.2318   -0.6539   -0.5216 C.2       1 <0>        -0.0904
     18 C13         2.0084    0.4190   -0.9864 C.2       1 <0>        -0.2244
     19 C14         1.1708    1.4614   -1.1805 C.2       1 <0>         0.0385
     20 O2         -0.0724    1.0809   -0.8592 O.3       1 <0>        -0.1691
     21 C15         1.5699    2.8272   -1.6768 C.3       1 <0>        -0.0869
     22 H1         -9.0538    4.6811    0.7684 H         1 <0>         0.0676
     23 H2         -7.3543    5.1527    0.4280 H         1 <0>         0.0691
     24 H3         -7.7850    4.4295    2.0148 H         1 <0>         0.0699
     25 H4         -9.7377    2.7537   -0.2846 H         1 <0>         0.1250
     26 H5         -9.3024    0.5076   -1.1908 H         1 <0>         0.1285
     27 H6         -7.0486   -0.4693   -1.0350 H         1 <0>         0.1381
     28 H7         -4.4267    2.6861    1.1157 H         1 <0>         0.0520
     29 H8         -5.6264    3.4985    2.1774 H         1 <0>         0.0771
     30 H9         -5.1954    4.2224    0.5909 H         1 <0>         0.0748
     31 H10        -4.0491    1.2938   -0.1869 H         1 <0>         0.4145
     32 H11        -3.4259   -2.2154    0.7263 H         1 <0>         0.4927
     33 H12        -2.5685    0.6258   -0.3117 H         1 <0>         0.4431
     34 H13         1.5849   -1.6421   -0.2660 H         1 <0>         0.1653
     35 H14         3.0748    0.4124   -1.1571 H         1 <0>         0.1624
     36 H15         0.6795    3.4704   -1.7362 H         1 <0>         0.0821
     37 H16         2.0239    2.7365   -2.6746 H         1 <0>         0.0964
     38 H17         2.2976    3.2716   -0.9819 H         1 <0>         0.0964
@<TRIPOS>BOND
     1    1    2 1
     2    1   22 1
     3    1   23 1
     4    1   24 1
     5    2    7 ar
     6    2    3 ar
     7    3    4 ar
     8    3   25 1
     9    4    5 ar
    10    4   26 1
    11    5    6 ar
    12    5   27 1
    13    6    7 ar
    14    6    9 1
    15    7    8 1
    16    8   28 1
    17    8   29 1
    18    8   30 1
    19    9   10 1
    20    9   31 1
    21   10   11 2
    22   10   12 1
    23   12   13 1
    24   12   32 1
    25   13   14 am
    26   13   33 1
    27   14   15 2
    28   14   16 1
    29   16   20 1
    30   16   17 2
    31   17   18 1
    32   17   34 1
    33   18   19 2
    34   18   35 1
    35   19   20 1
    36   19   21 1
    37   21   36 1
    38   21   37 1
    39   21   38 1
@<TRIPOS>MOLECULE
ZINC01800731
   37    38     0     0     0
SMALL
USER_CHARGES

@<TRIPOS>ATOM
      1 C1         -0.0187    1.5258    0.0104 C.3       1 <0>        -0.1505
      2 C2          0.0021   -0.0041    0.0020 C.3       1 <0>        -0.1243
      3 C3          0.7182   -0.4975   -1.2568 C.3       1 <0>         0.0809
      4 O1          0.7376   -1.9263   -1.2646 O.3       1 <0>        -0.3513
      5 C4          1.3357   -2.5238   -2.3126 C.2       1 <0>         0.6486
      6 O2          1.8278   -1.8504   -3.1962 O.2       1 <0>        -0.5323
      7 N1          1.3887   -3.8688   -2.3814 N.am      1 <0>        -0.5986
      8 C5          2.0047   -4.4841   -3.4607 C.2       1 <0>         0.0484
      9 C6          2.1475   -5.8418   -3.6999 C.2       1 <0>        -0.2303
     10 C7          2.8401   -6.2326   -4.9157 C.2       1 <0>        -0.0617
     11 C8          3.2629   -5.1945   -5.6686 C.2       1 <0>        -0.2208
     12 S1          2.7424   -3.7554   -4.7815 S.3       1 <0>         0.2937
     13 C9          4.0036   -5.2684   -6.9679 C.3       1 <0>        -0.0355
     14 C10         4.5446   -6.6962   -7.1340 C.3       1 <0>        -0.1145
     15 C11         3.4187   -7.6906   -6.8364 C.3       1 <0>        -0.1198
     16 C12         3.0885   -7.6719   -5.3423 C.3       1 <0>        -0.0604
     17 C13         1.6222   -6.8415   -2.7651 C.2       1 <0>         0.5847
     18 O3          0.4876   -7.2616   -2.8976 O.2       1 <0>        -0.5326
     19 N2          2.3957   -7.2953   -1.7591 N.am      1 <0>        -0.8473
     20 H1          1.0039    1.9031    0.0027 H         1 <0>         0.0601
     21 H2         -0.5459    1.8868   -0.8726 H         1 <0>         0.0603
     22 H3         -0.5289    1.8773    0.9072 H         1 <0>         0.0683
     23 H4          0.5293   -0.3651    0.8851 H         1 <0>         0.0758
     24 H5         -1.0205   -0.3814    0.0098 H         1 <0>         0.0761
     25 H6          0.1910   -0.1364   -2.1398 H         1 <0>         0.0750
     26 H7          1.7408   -0.1202   -1.2645 H         1 <0>         0.0749
     27 H8          0.9958   -4.4063   -1.6760 H         1 <0>         0.4256
     28 H9          3.3276   -5.0338   -7.7901 H         1 <0>         0.0833
     29 H10         4.8322   -4.5603   -6.9593 H         1 <0>         0.0820
     30 H11         4.8954   -6.8371   -8.1564 H         1 <0>         0.0743
     31 H12         5.3679   -6.8579   -6.4382 H         1 <0>         0.0682
     32 H13         2.5317   -7.4144   -7.4065 H         1 <0>         0.0678
     33 H14         3.7353   -8.6929   -7.1248 H         1 <0>         0.0708
     34 H15         3.9264   -8.0812   -4.7779 H         1 <0>         0.0776
     35 H16         2.1945   -8.2675   -5.1577 H         1 <0>         0.0761
     36 H17         3.2999   -6.9605   -1.6535 H         1 <0>         0.4036
     37 H18         2.0481   -7.9568   -1.1405 H         1 <0>         0.4037
@<TRIPOS>BOND
     1    1    2 1
     2    1   20 1
     3    1   21 1
     4    1   22 1
     5    2    3 1
     6    2   23 1
     7    2   24 1
     8    3    4 1
     9    3   25 1
    10    3   26 1
    11    4    5 1
    12    5    6 2
    13    5    7 am
    14    7    8 1
    15    7   27 1
    16    8   12 1
    17    8    9 2
    18    9   10 1
    19    9   17 1
    20   10   16 1
    21   10   11 2
    22   11   12 1
    23   11   13 1
    24   13   14 1
    25   13   28 1
    26   13   29 1
    27   14   15 1
    28   14   30 1
    29   14   31 1
    30   15   16 1
    31   15   32 1
    32   15   33 1
    33   16   34 1
    34   16   35 1
    35   17   18 2
    36   17   19 am
    37   19   36 1
    38   19   37 1
@<TRIPOS>MOLECULE
ZINC47053591
   38    39     0     0     0
SMALL
USER_CHARGES

@<TRIPOS>ATOM
      1 C1         -0.0167    1.3782    0.0096 C.ar      1 <0>        -0.0894
      2 C2          1.1706    2.0858    0.0021 C.ar      1 <0>        -0.1090
      3 C3          2.3780    1.4104   -0.0130 C.ar      1 <0>        -0.0300
      4 C4          2.3961    0.0270   -0.0206 C.ar      1 <0>        -0.1089
      5 C5          1.2082   -0.6795   -0.0130 C.ar      1 <0>        -0.0895
      6 C6          0.0021   -0.0041    0.0020 C.ar      1 <0>        -0.0707
      7 C7         -1.2928   -0.7750    0.0107 C.3       1 <0>        -0.0908
      8 C8         -1.7385   -1.0243   -1.4071 C.2       1 <0>         0.5149
      9 O1         -1.0704   -0.6162   -2.3335 O.2       1 <0>        -0.5168
     10 N1         -2.8795   -1.7008   -1.6458 N.am      1 <0>        -0.5326
     11 N2         -3.2938   -1.9326   -2.9639 N.am      1 <0>        -0.5332
     12 C9         -4.4348   -2.6091   -3.2025 C.2       1 <0>         0.7119
     13 O2         -4.7944   -2.8103   -4.3464 O.2       1 <0>        -0.5681
     14 N3         -5.1772   -3.0626   -2.1731 N.am      1 <0>        -0.7416
     15 C10        -6.4174   -3.7980   -2.4325 C.3       1 <0>         0.1445
     16 C11        -7.0617   -4.1964   -1.1032 C.3       1 <0>        -0.1272
     17 C12        -6.5550   -5.5393   -0.5512 C.3       1 <0>        -0.1377
     18 C13        -8.0078   -5.8276   -0.1374 C.3       1 <0>        -0.1436
     19 C14        -8.4353   -4.8694   -1.2616 C.3       1 <0>        -0.1306
     20 Cl1         3.8696    2.2984   -0.0231 Cl        1 <0>        -0.0677
     21 H1         -0.9592    1.9053    0.0259 H         1 <0>         0.1316
     22 H2          1.1558    3.1656    0.0076 H         1 <0>         0.1353
     23 H3          3.3383   -0.5007   -0.0327 H         1 <0>         0.1353
     24 H4          1.2222   -1.7594   -0.0193 H         1 <0>         0.1316
     25 H5         -1.1447   -1.7283    0.5180 H         1 <0>         0.1135
     26 H6         -2.0551   -0.1989    0.5352 H         1 <0>         0.1134
     27 H7         -3.4138   -2.0272   -0.9049 H         1 <0>         0.4190
     28 H8         -2.7595   -1.6062   -3.7047 H         1 <0>         0.4439
     29 H9         -4.8903   -2.9021   -1.2605 H         1 <0>         0.3908
     30 H10        -7.1046   -3.1649   -2.9939 H         1 <0>         0.0718
     31 H11        -6.1942   -4.6943   -3.0111 H         1 <0>         0.0724
     32 H12        -7.0525   -3.3900   -0.3699 H         1 <0>         0.0964
     33 H13        -6.1782   -6.2134   -1.3205 H         1 <0>         0.0841
     34 H14        -5.8731   -5.4352    0.2927 H         1 <0>         0.0674
     35 H15        -8.3127   -6.8606   -0.3047 H         1 <0>         0.0703
     36 H16        -8.2569   -5.4681    0.8611 H         1 <0>         0.0813
     37 H17        -9.2713   -4.2243   -0.9911 H         1 <0>         0.0718
     38 H18        -8.5725   -5.3602   -2.2251 H         1 <0>         0.0860
@<TRIPOS>BOND
     1    1    6 ar
     2    1    2 ar
     3    1   21 1
     4    2    3 ar
     5    2   22 1
     6    3    4 ar
     7    3   20 1
     8    4    5 ar
     9    4   23 1
    10    5    6 ar
    11    5   24 1
    12    6    7 1
    13    7    8 1
    14    7   25 1
    15    7   26 1
    16    8    9 2
    17    8   10 am
    18   10   11 1
    19   10   27 1
    20   11   12 am
    21   11   28 1
    22   12   13 2
    23   12   14 am
    24   14   15 1
    25   14   29 1
    26   15   16 1
    27   15   30 1
    28   15   31 1
    29   16   19 1
    30   16   17 1
    31   16   32 1
    32   17   18 1
    33   17   33 1
    34   17   34 1
    35   18   19 1
    36   18   35 1
    37   18   36 1
    38   19   37 1
    39   19   38 1
@<TRIPOS>MOLECULE
ZINC58001872
   39    40     0     0     0
SMALL
USER_CHARGES

@<TRIPOS>ATOM
      1 C1         -2.4433    0.6301   -0.2870 C.3       1 <0>        -0.0822
      2 C2         -1.2926   -0.3274   -0.1135 C.2       1 <0>         0.1331
      3 C3         -0.5183   -0.7190   -1.1723 C.2       1 <0>        -0.2176
      4 S1          0.6317   -1.8134   -0.3552 S.3       1 <0>         0.1365
      5 C4          0.0259   -1.6645    1.2078 C.2       1 <0>         0.3105
      6 N1         -0.9787   -0.8246    1.0659 N.2       1 <0>        -0.5750
      7 N2          0.4778   -2.2749    2.3656 N.pl3     1 <0>        -0.5293
      8 N3         -0.1473   -2.0304    3.5553 N.3       1 <0>        -0.5926
      9 C5         -0.6095   -0.3408   -2.5982 C.ar      1 <0>         0.0357
     10 C6         -0.7414    1.0011   -2.9605 C.ar      1 <0>        -0.1272
     11 C7         -0.8258    1.3507   -4.2924 C.ar      1 <0>        -0.0789
     12 C8         -0.7803    0.3764   -5.2740 C.ar      1 <0>        -0.2000
     13 C9         -0.6495   -0.9599   -4.9275 C.ar      1 <0>         0.1212
     14 C10        -0.5582   -1.3249   -3.5903 C.ar      1 <0>         0.0699
     15 O1         -0.4243   -2.6341   -3.2474 O.3       1 <0>        -0.3177
     16 C11        -1.6273   -3.3751   -3.0338 C.3       1 <0>         0.0383
     17 O2         -0.6054   -1.9126   -5.8971 O.3       1 <0>        -0.2990
     18 C12        -0.5831   -1.4589   -7.2519 C.3       1 <0>         0.0746
     19 C13         0.0674   -2.5248   -8.1360 C.3       1 <0>        -0.1489
     20 C14        -2.0146   -1.2052   -7.7285 C.3       1 <0>        -0.1816
     21 H1         -2.1024    1.6469   -0.0918 H         1 <0>         0.0767
     22 H2         -2.8210    0.5631   -1.3072 H         1 <0>         0.0755
     23 H3         -3.2386    0.3729    0.4126 H         1 <0>         0.0757
     24 H4          1.2382   -2.8762    2.3318 H         1 <0>         0.4223
     25 H5          0.2911   -2.5425    4.3060 H         1 <0>         0.3607
     26 H6         -0.1685   -1.0418    3.7561 H         1 <0>         0.3475
     27 H7         -0.7778    1.7653   -2.1982 H         1 <0>         0.1323
     28 H8         -0.9281    2.3894   -4.5701 H         1 <0>         0.1327
     29 H9         -0.8473    0.6580   -6.3145 H         1 <0>         0.1357
     30 H10        -1.3788   -4.4023   -2.7669 H         1 <0>         0.0925
     31 H11        -2.1973   -2.9174   -2.2252 H         1 <0>         0.0426
     32 H12        -2.2236   -3.3708   -3.9463 H         1 <0>         0.0466
     33 H13        -0.0095   -0.5342   -7.3160 H         1 <0>         0.0744
     34 H14        -0.5061   -3.4495   -8.0720 H         1 <0>         0.0673
     35 H15         0.0845   -2.1787   -9.1695 H         1 <0>         0.0776
     36 H16         1.0873   -2.7055   -7.7965 H         1 <0>         0.0660
     37 H17        -2.5882   -2.1299   -7.6645 H         1 <0>         0.0677
     38 H18        -2.4781   -0.4458   -7.0987 H         1 <0>         0.0630
     39 H19        -1.9975   -0.8591   -8.7620 H         1 <0>         0.0734
@<TRIPOS>BOND
     1    1    2 1
     2    1   21 1
     3    1   22 1
     4    1   23 1
     5    2    6 1
     6    2    3 2
     7    3    4 1
     8    3    9 1
     9    4    5 1
    10    5    6 2
    11    5    7 1
    12    7    8 1
    13    7   24 1
    14    8   25 1
    15    8   26 1
    16    9   14 ar
    17    9   10 ar
    18   10   11 ar
    19   10   27 1
    20   11   12 ar
    21   11   28 1
    22   12   13 ar
    23   12   29 1
    24   13   14 ar
    25   13   17 1
    26   14   15 1
    27   15   16 1
    28   16   30 1
    29   16   31 1
    30   16   32 1
    31   17   18 1
    32   18   19 1
    33   18   20 1
    34   18   33 1
    35   19   34 1
    36   19   35 1
    37   19   36 1
    38   20   37 1
    39   20   38 1
    40   20   39 1
@<TRIPOS>MOLECULE
ZINC62960561
   49    49     0     0     0
SMALL
USER_CHARGES

@<TRIPOS>ATOM
      1 C1         -0.8776   -0.4279    0.1465 C.3       1 <0>        -0.1580
      2 C2          0.6090   -0.0737    0.0730 C.3       1 <0>        -0.1136
      3 C3          1.2269   -0.7217   -1.1676 C.3       1 <0>        -0.0546
      4 C4          0.5847   -0.1310   -2.4249 C.3       1 <0>        -0.1265
      5 C5          1.2300   -0.7568   -3.6653 C.3       1 <0>         0.1093
      6 N1          1.1270   -2.2191   -3.5651 N.am      1 <0>        -0.6081
      7 C6          1.6323   -2.8816   -2.3550 C.3       1 <0>         0.0993
      8 C7          0.9825   -2.2319   -1.1293 C.3       1 <0>        -0.1305
      9 C8          0.5789   -2.9389   -4.5641 C.2       1 <0>         0.5283
     10 O1          0.0779   -2.3749   -5.5138 O.2       1 <0>        -0.5166
     11 C9          0.5886   -4.4445   -4.5012 C.3       1 <0>        -0.0456
     12 H1          1.3722   -4.7746   -3.8192 H         1 <0>         0.1114
     13 C10         0.8550   -5.0116   -5.8970 C.3       1 <0>        -0.0708
     14 C11         2.2036   -4.4994   -6.4067 C.3       1 <0>        -0.1518
     15 C12         0.8823   -6.5399   -5.8299 C.3       1 <0>        -0.1484
     16 C13        -0.7475   -4.9352   -4.0062 C.2       1 <0>         0.3741
     17 N2         -1.6608   -5.2839   -4.8507 N.2       1 <0>        -0.3945
     18 O2         -2.9163   -5.7450   -4.3856 O.3       1 <0>        -0.4258
     19 N3         -0.9950   -5.0119   -2.6536 N.pl3     1 <0>        -0.8715
     20 C14         2.7324   -0.4494   -1.1886 C.3       1 <0>        -0.1193
     21 C15         2.9791    1.0585   -1.1096 C.3       1 <0>        -0.1568
     22 H2         -1.3942   -0.0084   -0.7168 H         1 <0>         0.0548
     23 H3         -0.9932   -1.5117    0.1478 H         1 <0>         0.0558
     24 H4         -1.3045   -0.0159    1.0609 H         1 <0>         0.0529
     25 H5          0.7220    1.0088    0.0120 H         1 <0>         0.0671
     26 H6          1.1148   -0.4420    0.9655 H         1 <0>         0.0629
     27 H7         -0.4839   -0.3461   -2.4229 H         1 <0>         0.0695
     28 H8          0.7390    0.9479   -2.4396 H         1 <0>         0.0792
     29 H9          0.7100   -0.4143   -4.5599 H         1 <0>         0.0928
     30 H10         2.2795   -0.4672   -3.7167 H         1 <0>         0.0726
     31 H11         1.3777   -3.9411   -2.3851 H         1 <0>         0.0780
     32 H12         2.7146   -2.7652   -2.2996 H         1 <0>         0.0787
     33 H13         1.4200   -2.6484   -0.2219 H         1 <0>         0.0796
     34 H14        -0.0898   -2.4273   -1.1395 H         1 <0>         0.0739
     35 H15         0.0647   -4.6918   -6.5760 H         1 <0>         0.0985
     36 H16         3.0022   -4.8870   -5.7741 H         1 <0>         0.0547
     37 H17         2.3563   -4.8364   -7.4320 H         1 <0>         0.0653
     38 H18         2.2132   -3.4099   -6.3771 H         1 <0>         0.0568
     39 H19        -0.0785   -6.9048   -5.4667 H         1 <0>         0.0639
     40 H20         1.0721   -6.9439   -6.8243 H         1 <0>         0.0624
     41 H21         1.6726   -6.8598   -5.1508 H         1 <0>         0.0511
     42 H22        -3.5339   -5.9824   -5.0908 H         1 <0>         0.4019
     43 H23        -0.3092   -4.7500   -2.0195 H         1 <0>         0.3920
     44 H24        -1.8550   -5.3277   -2.3350 H         1 <0>         0.4094
     45 H25         3.2022   -0.9396   -0.3359 H         1 <0>         0.0635
     46 H26         3.1593   -0.8395   -2.1125 H         1 <0>         0.0659
     47 H27         2.4350    1.5582   -1.9111 H         1 <0>         0.0570
     48 H28         2.6325    1.4334   -0.1465 H         1 <0>         0.0568
     49 H29         4.0454    1.2583   -1.2148 H         1 <0>         0.0530
@<TRIPOS>BOND
     1    1    2 1
     2    1   22 1
     3    1   23 1
     4    1   24 1
     5    2    3 1
     6    2   25 1
     7    2   26 1
     8    3    8 1
     9    3    4 1
    10    3   20 1
    11    4    5 1
    12    4   27 1
    13    4   28 1
    14    5    6 1
    15    5   29 1
    16    5   30 1
    17    6    7 1
    18    6    9 am
    19    7    8 1
    20    7   31 1
    21    7   32 1
    22    8   33 1
    23    8   34 1
    24    9   10 2
    25    9   11 1
    26   11   12 1
    27   11   13 1
    28   11   16 1
    29   13   14 1
    30   13   15 1
    31   13   35 1
    32   14   36 1
    33   14   37 1
    34   14   38 1
    35   15   39 1
    36   15   40 1
    37   15   41 1
    38   16   17 2
    39   16   19 1
    40   17   18 1
    41   18   42 1
    42   19   43 1
    43   19   44 1
    44   20   21 1
    45   20   45 1
    46   20   46 1
    47   21   47 1
    48   21   48 1
    49   21   49 1
@<TRIPOS>MOLECULE
ZINC03514377
   42    43     0     0     0
SMALL
USER_CHARGES
1-(cyclopentylcarbamoyl)ethyl 2-hydroxy-3-methyl-benzoate
@<TRIPOS>ATOM
      1 C1         -6.1017   -7.5579    0.2992 C.3       1 <0>        -0.1086
      2 C2         -5.6328   -6.2312    0.8385 C.ar      1 <0>        -0.1261
      3 C3         -6.4089   -5.5447    1.7514 C.ar      1 <0>        -0.0669
      4 C4         -5.9870   -4.3243    2.2528 C.ar      1 <0>        -0.1383
      5 C5         -4.7869   -3.7827    1.8460 C.ar      1 <0>        -0.0496
      6 C6         -3.9912   -4.4665    0.9231 C.ar      1 <0>        -0.1553
      7 C7         -4.4248   -5.6990    0.4137 C.ar      1 <0>         0.1731
      8 O1         -3.6637   -6.3699   -0.4865 O.3       1 <0>        -0.4751
      9 C8         -2.7067   -3.8930    0.4831 C.2       1 <0>         0.5104
     10 O2         -2.0176   -4.4907   -0.3195 O.2       1 <0>        -0.4896
     11 O3         -2.2965   -2.7057    0.9710 O.3       1 <0>        -0.3256
     12 C9         -1.0213   -2.2018    0.4933 C.3       1 <0>         0.0713
     13 H1         -0.8476   -2.5572   -0.5224 H         1 <0>         0.1120
     14 C10         0.0993   -2.7016    1.4072 C.3       1 <0>        -0.1650
     15 C11        -1.0418   -0.6949    0.5016 C.2       1 <0>         0.5184
     16 O4         -1.9975   -0.1039    0.9578 O.2       1 <0>        -0.5138
     17 N1          0.0021   -0.0041    0.0020 N.am      1 <0>        -0.7203
     18 C12        -0.0178    1.4608    0.0101 C.3       1 <0>         0.1406
     19 C13        -0.6989    1.9871   -1.2701 C.3       1 <0>        -0.1368
     20 C14         0.1108    3.2554   -1.6372 C.3       1 <0>        -0.1251
     21 C15         1.5632    2.8469   -1.2871 C.3       1 <0>        -0.1251
     22 C16         1.4205    2.0075   -0.0007 C.3       1 <0>        -0.1315
     23 H2         -6.6941   -7.3952   -0.6012 H         1 <0>         0.0753
     24 H3         -5.2382   -8.1782    0.0589 H         1 <0>         0.0702
     25 H4         -6.7121   -8.0600    1.0499 H         1 <0>         0.0700
     26 H5         -7.3507   -5.9617    2.0762 H         1 <0>         0.1352
     27 H6         -6.6013   -3.7949    2.9661 H         1 <0>         0.1366
     28 H7         -4.4617   -2.8312    2.2401 H         1 <0>         0.1445
     29 H8         -3.0306   -6.9823   -0.0875 H         1 <0>         0.3955
     30 H9          0.1141   -3.7915    1.4012 H         1 <0>         0.0766
     31 H10         1.0566   -2.3233    1.0486 H         1 <0>         0.0820
     32 H11        -0.0744   -2.3462    2.4229 H         1 <0>         0.0749
     33 H12         0.7665   -0.4767   -0.3629 H         1 <0>         0.4014
     34 H13        -0.5479    1.8219    0.8914 H         1 <0>         0.0942
     35 H14        -0.6331    1.2481   -2.0686 H         1 <0>         0.0705
     36 H15        -1.7395    2.2432   -1.0709 H         1 <0>         0.0722
     37 H16        -0.2077    4.1052   -1.0334 H         1 <0>         0.0707
     38 H17         0.0178    3.4789   -2.7000 H         1 <0>         0.0702
     39 H18         2.1735    3.7306   -1.1003 H         1 <0>         0.0701
     40 H19         1.9944    2.2468   -2.0884 H         1 <0>         0.0677
     41 H20         1.5882    2.6346    0.8749 H         1 <0>         0.0772
     42 H21         2.1333    1.1829   -0.0120 H         1 <0>         0.0719
@<TRIPOS>BOND
     1    1    2 1
     2    1   23 1
     3    1   24 1
     4    1   25 1
     5    2    7 ar
     6    2    3 ar
     7    3    4 ar
     8    3   26 1
     9    4    5 ar
    10    4   27 1
    11    5    6 ar
    12    5   28 1
    13    6    7 ar
    14    6    9 1
    15    7    8 1
    16    8   29 1
    17    9   10 2
    18    9   11 1
    19   11   12 1
    20   12   13 1
    21   12   14 1
    22   12   15 1
    23   14   30 1
    24   14   31 1
    25   14   32 1
    26   15   16 2
    27   15   17 am
    28   17   18 1
    29   17   33 1
    30   18   22 1
    31   18   19 1
    32   18   34 1
    33   19   20 1
    34   19   35 1
    35   19   36 1
    36   20   21 1
    37   20   37 1
    38   20   38 1
    39   21   22 1
    40   21   39 1
    41   21   40 1
    42   22   41 1
    43   22   42 1
@<TRIPOS>MOLECULE
ZINC35288213
   38    39     0     0     0
SMALL
USER_CHARGES

@<TRIPOS>ATOM
      1 C1         -0.0187    1.5258    0.0104 C.3       1 <0>        -0.1502
      2 C2          0.0021   -0.0041    0.0020 C.3       1 <0>        -0.1148
      3 C3         -1.4333   -0.5336    0.0129 C.3       1 <0>        -0.0186
      4 C4         -1.4129   -2.0405    0.0046 C.2       1 <0>        -0.3285
      5 C5         -1.3103   -2.7429   -1.1927 C.2       1 <0>         0.4499
      6 N1         -1.2942   -4.0893   -1.1663 N.am      1 <0>        -0.5424
      7 C6         -1.3757   -4.7484   -0.0103 C.cat     1 <0>         0.5268
      8 N2         -1.4752   -4.1045    1.1529 N.pl3     1 <0>        -0.5428
      9 C7         -1.4903   -2.7585    1.1945 C.2       1 <0>         0.4498
     10 O1         -1.5849   -2.1176    2.3678 O.3       1 <0>        -0.5904
     11 C8         -1.3556   -6.2241   -0.0184 C.ar      1 <0>        -0.1811
     12 C9         -1.8623   -6.9256   -1.1156 C.ar      1 <0>        -0.0225
     13 C10        -1.8418   -8.3026   -1.1192 C.ar      1 <0>        -0.1480
     14 C11        -1.3185   -8.9945   -0.0334 C.ar      1 <0>         0.1901
     15 C12        -0.8140   -8.3006    1.0600 C.ar      1 <0>        -0.2085
     16 C13        -0.8247   -6.9235    1.0687 C.ar      1 <0>        -0.0188
     17 O2         -1.3005  -10.3517   -0.0406 O.3       1 <0>        -0.3020
     18 C14        -0.7486  -10.9993    1.1074 C.3       1 <0>         0.0479
     19 C15        -0.8141  -12.5162    0.9180 C.3       1 <0>        -0.1559
     20 O3         -1.2289   -2.0868   -2.3586 O.2       1 <0>        -0.5885
     21 H1          1.0039    1.9031    0.0027 H         1 <0>         0.0503
     22 H2         -0.5459    1.8868   -0.8726 H         1 <0>         0.0534
     23 H3         -0.5289    1.8773    0.9072 H         1 <0>         0.0530
     24 H4          0.5123   -0.3556   -0.8948 H         1 <0>         0.0584
     25 H5          0.5293   -0.3651    0.8851 H         1 <0>         0.0551
     26 H6         -1.9435   -0.1821    0.9097 H         1 <0>         0.0734
     27 H7         -1.9605   -0.1726   -0.8702 H         1 <0>         0.0703
     28 H8         -1.5332   -4.6108    1.9783 H         1 <0>         0.4380
     29 H9         -2.2697   -6.3886   -1.9594 H         1 <0>         0.1467
     30 H10        -2.2331   -8.8455   -1.9668 H         1 <0>         0.1533
     31 H11        -0.4089   -8.8420    1.9022 H         1 <0>         0.1490
     32 H12        -0.4278   -6.3849    1.9165 H         1 <0>         0.1425
     33 H13         0.2900  -10.6934    1.2330 H         1 <0>         0.0709
     34 H14        -1.3196  -10.7187    1.9924 H         1 <0>         0.0710
     35 H15        -0.3931  -13.0102    1.7937 H         1 <0>         0.0847
     36 H16        -1.8527  -12.8222    0.7924 H         1 <0>         0.0699
     37 H17        -0.2431  -12.7968    0.0329 H         1 <0>         0.0699
     38 H18        -1.2229   -4.5847   -1.9972 H         1 <0>         0.4385
@<TRIPOS>BOND
     1    1    2 1
     2    1   21 1
     3    1   22 1
     4    1   23 1
     5    2    3 1
     6    2   24 1
     7    2   25 1
     8    3   26 1
     9    3   27 1
    10    3    4 1
    11    4    5 1
    12    4    9 2
    13    5    6 am
    14    5   20 2
    15    6   38 1
    16    6    7 1
    17    7    8 2
    18    7   11 1
    19    8    9 1
    20    8   28 1
    21    9   10 1
    22   11   16 ar
    23   11   12 ar
    24   12   13 ar
    25   12   29 1
    26   13   14 ar
    27   13   30 1
    28   14   15 ar
    29   14   17 1
    30   15   16 ar
    31   15   31 1
    32   16   32 1
    33   17   18 1
    34   18   19 1
    35   18   33 1
    36   18   34 1
    37   19   35 1
    38   19   36 1
    39   19   37 1
@<TRIPOS>MOLECULE
ZINC42946688
   47    48     0     0     0
SMALL
USER_CHARGES

@<TRIPOS>ATOM
      1 C1         -0.0192    1.5262    0.0055 C.3       1 <0>        -0.1460
      2 C2          0.0018   -0.0036   -0.0013 C.3       1 <0>        -0.1085
      3 C3          0.7421   -0.5091    1.2387 C.3       1 <0>        -0.1495
      4 C4         -1.4335   -0.5334    0.0104 C.3       1 <0>         0.1400
      5 N1         -1.4165   -1.9928   -0.1164 N.am      1 <0>        -0.7449
      6 C5         -2.5748   -2.6816   -0.1296 C.2       1 <0>         0.7085
      7 O1         -3.6282   -2.1034    0.0560 O.2       1 <0>        -0.5874
      8 N2         -2.5656   -4.0114   -0.3486 N.am      1 <0>        -0.6287
      9 C6         -1.2963   -4.7432   -0.4586 C.3       1 <0>         0.1091
     10 C7         -1.2944   -5.5324   -1.7716 C.3       1 <0>        -0.1354
     11 C8         -2.5391   -6.4209   -1.8298 C.3       1 <0>        -0.0998
     12 C9         -3.7944   -5.5462   -1.7939 C.3       1 <0>        -0.1229
     13 H1         -3.7789   -4.8529   -2.6349 H         1 <0>         0.1025
     14 C10        -3.8247   -4.7580   -0.4756 C.3       1 <0>         0.1417
     15 C11        -5.0190   -6.4198   -1.8847 C.2       1 <0>         0.5209
     16 O2         -4.9001   -7.6237   -1.9698 O.2       1 <0>        -0.5342
     17 N3         -6.2464   -5.8631   -1.8713 N.am      1 <0>        -0.7275
     18 C12        -7.4368   -6.7124   -1.9595 C.3       1 <0>         0.1497
     19 C13        -8.6914   -5.8373   -1.9236 C.3       1 <0>        -0.1742
     20 C14        -9.6424   -6.0143   -0.7382 C.3       1 <0>        -0.1756
     21 C15       -10.0414   -6.5294   -2.1225 C.3       1 <0>        -0.1694
     22 H2          1.0034    1.9036   -0.0028 H         1 <0>         0.0616
     23 H3         -0.5465    1.8863   -0.8778 H         1 <0>         0.0588
     24 H4         -0.5292    1.8786    0.9021 H         1 <0>         0.0594
     25 H5          0.5118   -0.3560   -0.8978 H         1 <0>         0.0760
     26 H6          0.2320   -0.1567    2.1352 H         1 <0>         0.0588
     27 H7          0.7570   -1.5990    1.2338 H         1 <0>         0.0521
     28 H8          1.7646   -0.1317    1.2303 H         1 <0>         0.0593
     29 H9         -1.9157   -0.2557    0.9477 H         1 <0>         0.0684
     30 H10        -1.9866   -0.1026   -0.8242 H         1 <0>         0.0663
     31 H11        -0.5715   -2.4633   -0.1910 H         1 <0>         0.3955
     32 H12        -0.4660   -4.0370   -0.4556 H         1 <0>         0.0779
     33 H13        -1.1969   -5.4308    0.3812 H         1 <0>         0.0742
     34 H14        -1.3025   -4.8393   -2.6128 H         1 <0>         0.0695
     35 H15        -0.4007   -6.1546   -1.8208 H         1 <0>         0.0831
     36 H16        -2.5277   -7.0019   -2.7520 H         1 <0>         0.0765
     37 H17        -2.5431   -7.0970   -0.9749 H         1 <0>         0.0744
     38 H18        -3.9273   -5.4468    0.3629 H         1 <0>         0.0726
     39 H19        -4.6632   -4.0616   -0.4838 H         1 <0>         0.0984
     40 H20        -6.3415   -4.9002   -1.8032 H         1 <0>         0.4033
     41 H21        -7.4132   -7.2754   -2.8926 H         1 <0>         0.0724
     42 H22        -7.4525   -7.4047   -1.1178 H         1 <0>         0.0706
     43 H23        -8.5758   -4.8329   -2.3309 H         1 <0>         0.1110
     44 H24        -9.3743   -6.7542    0.0161 H         1 <0>         0.0972
     45 H25       -10.1526   -5.1262   -0.3653 H         1 <0>         0.0972
     46 H26       -10.8141   -5.9801   -2.6604 H         1 <0>         0.0989
     47 H27       -10.0357   -7.6081   -2.2790 H         1 <0>         0.0982
@<TRIPOS>BOND
     1    1    2 1
     2    1   22 1
     3    1   23 1
     4    1   24 1
     5    2    3 1
     6    2    4 1
     7    2   25 1
     8    3   26 1
     9    3   27 1
    10    3   28 1
    11    4    5 1
    12    4   29 1
    13    4   30 1
    14    5    6 am
    15    5   31 1
    16    6    7 2
    17    6    8 am
    18    8   14 1
    19    8    9 1
    20    9   10 1
    21    9   32 1
    22    9   33 1
    23   10   11 1
    24   10   34 1
    25   10   35 1
    26   11   12 1
    27   11   36 1
    28   11   37 1
    29   12   13 1
    30   12   14 1
    31   12   15 1
    32   14   38 1
    33   14   39 1
    34   15   16 2
    35   15   17 am
    36   17   18 1
    37   17   40 1
    38   18   19 1
    39   18   41 1
    40   18   42 1
    41   19   21 1
    42   19   20 1
    43   19   43 1
    44   20   21 1
    45   20   44 1
    46   20   45 1
    47   21   46 1
    48   21   47 1
@<TRIPOS>MOLECULE
ZINC48955488
   42    43     0     0     0
SMALL
USER_CHARGES

@<TRIPOS>ATOM
      1 C1          1.0110    1.5852    0.2952 C.3       1 <0>        -0.1661
      2 C2          1.1820    0.0650    0.3228 C.3       1 <0>         0.1319
      3 N1          1.2474   -0.4441   -1.0493 N.am      1 <0>        -0.7423
      4 C3          1.3975   -1.7649   -1.2716 C.2       1 <0>         0.7040
      5 O1          1.4785   -2.5340   -0.3332 O.2       1 <0>        -0.5757
      6 N2          1.4577   -2.2333   -2.5339 N.am      1 <0>        -0.6770
      7 C4          1.7071   -3.5930   -2.7658 C.ar      1 <0>         0.1358
      8 C5          1.2108   -4.5498   -1.8927 C.ar      1 <0>        -0.0842
      9 C6          1.4581   -5.8898   -2.1233 C.ar      1 <0>        -0.1378
     10 C7          2.1995   -6.2802   -3.2232 C.ar      1 <0>        -0.0954
     11 C8          2.6973   -5.3323   -4.0977 C.ar      1 <0>        -0.1929
     12 C9          2.4490   -3.9873   -3.8767 C.ar      1 <0>         0.1037
     13 O2          2.9333   -3.0540   -4.7391 O.3       1 <0>        -0.3090
     14 C10         3.6855   -3.5315   -5.8563 C.3       1 <0>         0.0692
     15 C11         4.1436   -2.3452   -6.7071 C.3       1 <0>         0.0936
     16 H1          3.2786   -1.7453   -6.9900 H         1 <0>         0.0688
     17 C12         4.8418   -2.8608   -7.9682 C.3       1 <0>        -0.1490
     18 C13         5.3503   -1.6686   -8.7846 C.3       1 <0>        -0.1214
     19 C14         6.2810   -0.8240   -7.9089 C.3       1 <0>        -0.1594
     20 C15         5.5271   -0.3871   -6.6501 C.3       1 <0>         0.0604
     21 O3          5.0547   -1.5423   -5.9540 O.3       1 <0>        -0.3708
     22 H2          1.8588    2.0369   -0.2199 H         1 <0>         0.0622
     23 H3          0.0900    1.8377   -0.2304 H         1 <0>         0.0620
     24 H4          0.9623    1.9640    1.3161 H         1 <0>         0.0770
     25 H5          2.1029   -0.1875    0.8484 H         1 <0>         0.0680
     26 H6          0.3342   -0.3867    0.8379 H         1 <0>         0.0682
     27 H7          1.1828    0.1694   -1.7978 H         1 <0>         0.3979
     28 H8          1.3284   -1.6294   -3.2819 H         1 <0>         0.4089
     29 H9          0.6317   -4.2476   -1.0326 H         1 <0>         0.1480
     30 H10         1.0715   -6.6339   -1.4426 H         1 <0>         0.1278
     31 H11         2.3906   -7.3285   -3.3994 H         1 <0>         0.1261
     32 H12         3.2761   -5.6405   -4.9559 H         1 <0>         0.1302
     33 H13         4.5568   -4.0808   -5.4997 H         1 <0>         0.0722
     34 H14         3.0616   -4.1914   -6.4590 H         1 <0>         0.0782
     35 H15         5.6828   -3.4941   -7.6858 H         1 <0>         0.0763
     36 H16         4.1354   -3.4369   -8.5660 H         1 <0>         0.0780
     37 H17         5.8973   -2.0298   -9.6554 H         1 <0>         0.0722
     38 H18         4.5049   -1.0619   -9.1092 H         1 <0>         0.0657
     39 H19         7.1510   -1.4162   -7.6253 H         1 <0>         0.0727
     40 H20         6.6038    0.0566   -8.4642 H         1 <0>         0.0756
     41 H21         6.1975    0.1784   -6.0028 H         1 <0>         0.0956
     42 H22         4.6804    0.2386   -6.9323 H         1 <0>         0.0509
@<TRIPOS>BOND
     1    1    2 1
     2    1   22 1
     3    1   23 1
     4    1   24 1
     5    2    3 1
     6    2   25 1
     7    2   26 1
     8    3    4 am
     9    3   27 1
    10    4    5 2
    11    4    6 am
    12    6    7 1
    13    6   28 1
    14    7   12 ar
    15    7    8 ar
    16    8    9 ar
    17    8   29 1
    18    9   10 ar
    19    9   30 1
    20   10   11 ar
    21   10   31 1
    22   11   12 ar
    23   11   32 1
    24   12   13 1
    25   13   14 1
    26   14   15 1
    27   14   33 1
    28   14   34 1
    29   15   16 1
    30   15   21 1
    31   15   17 1
    32   17   18 1
    33   17   35 1
    34   17   36 1
    35   18   19 1
    36   18   37 1
    37   18   38 1
    38   19   20 1
    39   19   39 1
    40   19   40 1
    41   20   21 1
    42   20   41 1
    43   20   42 1
@<TRIPOS>MOLECULE
ZINC62126601
   36    37     0     0     0
SMALL
USER_CHARGES

@<TRIPOS>ATOM
      1 C1         -1.1593   -0.3024    3.2076 C.3       1 <0>         0.0268
      2 O1         -0.7591   -1.1553    2.1331 O.3       1 <0>        -0.3158
      3 C2         -1.5714   -1.1978    1.0431 C.ar      1 <0>         0.1066
      4 C3         -2.7246   -0.4314    1.0064 C.ar      1 <0>        -0.1806
      5 C4         -3.5498   -0.4760   -0.1023 C.ar      1 <0>        -0.0969
      6 C5         -3.2273   -1.2840   -1.1768 C.ar      1 <0>        -0.1195
      7 C6         -2.0781   -2.0515   -1.1483 C.ar      1 <0>        -0.1359
      8 C7         -1.2427   -2.0079   -0.0416 C.ar      1 <0>         0.1443
      9 N1         -0.0754   -2.7797   -0.0127 N.pl3     1 <0>        -1.0545
     10 S1         -0.0488   -4.2682   -0.7381 S.o2      1 <0>         2.7848
     11 O2          1.2460   -4.8076   -0.5107 O.2       1 <0>        -0.9676
     12 O3         -1.2350   -4.9382   -0.3340 O.2       1 <0>        -0.9638
     13 N2         -0.1781   -4.0198   -2.3702 N.pl3     1 <0>        -1.1202
     14 C8          0.8881   -3.3203   -3.0914 C.3       1 <0>         0.1425
     15 C9          0.5141   -1.8352   -3.2775 C.3       1 <0>        -0.1465
     16 C10         1.0541   -1.4810   -4.6853 C.3       1 <0>        -0.1239
     17 C11         0.7644   -2.7683   -5.4964 C.3       1 <0>        -0.1254
     18 C12         1.0472   -3.9135   -4.5023 C.3       1 <0>        -0.1287
     19 H1         -0.4255   -0.3620    4.0114 H         1 <0>         0.1026
     20 H2         -1.2245    0.7254    2.8507 H         1 <0>         0.0571
     21 H3         -2.1331   -0.6201    3.5803 H         1 <0>         0.0578
     22 H4         -2.9794    0.2008    1.8440 H         1 <0>         0.1344
     23 H5         -4.4489    0.1218   -0.1288 H         1 <0>         0.1300
     24 H6         -3.8750   -1.3159   -2.0404 H         1 <0>         0.1322
     25 H7         -1.8287   -2.6822   -1.9888 H         1 <0>         0.1365
     26 H8          0.7179   -2.4428    0.4323 H         1 <0>         0.4279
     27 H9         -0.9598   -4.3374   -2.8487 H         1 <0>         0.4189
     28 H10         1.8265   -3.4039   -2.5432 H         1 <0>         0.0957
     29 H11        -0.5677   -1.7068   -3.2404 H         1 <0>         0.0801
     30 H12         0.9983   -1.2218   -2.5177 H         1 <0>         0.0714
     31 H13         0.5145   -0.6313   -5.1035 H         1 <0>         0.0704
     32 H14         2.1248   -1.2801   -4.6490 H         1 <0>         0.0702
     33 H15        -0.2770   -2.7905   -5.8177 H         1 <0>         0.0678
     34 H16         1.4313   -2.8359   -6.3559 H         1 <0>         0.0693
     35 H17         2.0631   -4.2843   -4.6390 H         1 <0>         0.0765
     36 H18         0.3312   -4.7219   -4.6504 H         1 <0>         0.0756
@<TRIPOS>BOND
     1    1    2 1
     2    1   19 1
     3    1   20 1
     4    1   21 1
     5    2    3 1
     6    3    8 ar
     7    3    4 ar
     8    4    5 ar
     9    4   22 1
    10    5    6 ar
    11    5   23 1
    12    6    7 ar
    13    6   24 1
    14    7    8 ar
    15    7   25 1
    16    8    9 1
    17    9   10 1
    18    9   26 1
    19   10   11 2
    20   10   12 2
    21   10   13 1
    22   13   14 1
    23   13   27 1
    24   14   18 1
    25   14   15 1
    26   14   28 1
    27   15   16 1
    28   15   29 1
    29   15   30 1
    30   16   17 1
    31   16   31 1
    32   16   32 1
    33   17   18 1
    34   17   33 1
    35   17   34 1
    36   18   35 1
    37   18   36 1
@<TRIPOS>MOLECULE
ZINC08416391
   39    40     0     0     0
SMALL
USER_CHARGES
3-cyclopentyl-1-[2-(4-fluorophenoxy)acetyl]amino-thiourea
@<TRIPOS>ATOM
      1 C1         -0.0167    1.3773    0.0096 C.ar      1 <0>        -0.1135
      2 C2          0.0021   -0.0041    0.0020 C.ar      1 <0>        -0.1103
      3 C3          1.2100   -0.6806   -0.0131 C.ar      1 <0>         0.0663
      4 C4          2.4006    0.0261   -0.0207 C.ar      1 <0>        -0.1121
      5 C5          2.3848    1.4074   -0.0127 C.ar      1 <0>        -0.1820
      6 C6          1.1754    2.0865    0.0020 C.ar      1 <0>         0.1161
      7 O1          1.1584    3.4458    0.0091 O.3       1 <0>        -0.2846
      8 C7          2.4234    4.1105    0.0006 C.3       1 <0>         0.0524
      9 C8          2.2072    5.6019    0.0101 C.2       1 <0>         0.5216
     10 O2          1.0808    6.0513    0.0229 O.2       1 <0>        -0.4897
     11 N1          3.2657    6.4362    0.0044 N.am      1 <0>        -0.5477
     12 N2          3.0648    7.8227    0.0133 N.pl3     1 <0>        -0.4692
     13 C9          4.1232    8.6571    0.0076 C.2       1 <0>         0.5604
     14 S1          3.8777   10.3513    0.0184 S.2       1 <0>        -0.5805
     15 N3          5.3749    8.1576   -0.0066 N.pl3     1 <0>        -0.6781
     16 C10         6.5254    9.0645   -0.0128 C.3       1 <0>         0.1369
     17 C11         6.8930    9.4420   -1.4627 C.3       1 <0>        -0.1313
     18 C12         8.4405    9.5065   -1.4578 C.3       1 <0>        -0.1250
     19 C13         8.8286    8.3321   -0.5255 C.3       1 <0>        -0.1254
     20 C14         7.7561    8.3588    0.5831 C.3       1 <0>        -0.1326
     21 F1          1.2269   -2.0315   -0.0201 F         1 <0>        -0.1375
     22 H1         -0.9591    1.9048    0.0170 H         1 <0>         0.1460
     23 H2         -0.9259   -0.5565    0.0083 H         1 <0>         0.1467
     24 H3          3.3421   -0.5029   -0.0326 H         1 <0>         0.1413
     25 H4          3.3137    1.9584   -0.0179 H         1 <0>         0.1378
     26 H5          2.9923    3.8201    0.8838 H         1 <0>         0.1048
     27 H6          2.9756    3.8291   -0.8960 H         1 <0>         0.1048
     28 H7          4.1666    6.0768   -0.0058 H         1 <0>         0.4210
     29 H8          2.1639    8.1822    0.0235 H         1 <0>         0.4602
     30 H9          5.5140    7.1977   -0.0128 H         1 <0>         0.3893
     31 H10         6.2958    9.9625    0.5608 H         1 <0>         0.1235
     32 H11         6.5453    8.6762   -2.1561 H         1 <0>         0.0669
     33 H12         6.4715   10.4130   -1.7226 H         1 <0>         0.0863
     34 H13         8.7863   10.4555   -1.0480 H         1 <0>         0.0746
     35 H14         8.8368    9.3504   -2.4611 H         1 <0>         0.0720
     36 H15         9.8197    8.4931   -0.1014 H         1 <0>         0.0726
     37 H16         8.7935    7.3870   -1.0675 H         1 <0>         0.0664
     38 H17         8.1242    8.9148    1.4454 H         1 <0>         0.0838
     39 H18         7.4971    7.3418    0.8777 H         1 <0>         0.0677
@<TRIPOS>BOND
     1    1    6 ar
     2    1    2 ar
     3    1   22 1
     4    2    3 ar
     5    2   23 1
     6    3    4 ar
     7    3   21 1
     8    4    5 ar
     9    4   24 1
    10    5    6 ar
    11    5   25 1
    12    6    7 1
    13    7    8 1
    14    8    9 1
    15    8   26 1
    16    8   27 1
    17    9   10 2
    18    9   11 am
    19   11   12 1
    20   11   28 1
    21   12   13 1
    22   12   29 1
    23   13   14 2
    24   13   15 1
    25   15   16 1
    26   15   30 1
    27   16   20 1
    28   16   17 1
    29   16   31 1
    30   17   18 1
    31   17   32 1
    32   17   33 1
    33   18   19 1
    34   18   34 1
    35   18   35 1
    36   19   20 1
    37   19   36 1
    38   19   37 1
    39   20   38 1
    40   20   39 1
@<TRIPOS>MOLECULE
ZINC37035184
   43    43     0     0     0
SMALL
USER_CHARGES

@<TRIPOS>ATOM
      1 C1         -0.4090   -2.4818   -1.1245 C.3       1 <0>        -0.1483
      2 C2         -1.2697   -2.0493    0.0642 C.3       1 <0>        -0.1057
      3 C3         -0.6404   -2.5597    1.3621 C.3       1 <0>        -0.1458
      4 C4         -1.3536   -0.5221    0.1043 C.3       1 <0>        -0.1213
      5 C5         -2.0948   -0.0194   -1.1362 C.3       1 <0>         0.1547
      6 H1         -1.6293   -0.4338   -2.0304 H         1 <0>         0.1317
      7 C6         -3.5358   -0.4558   -1.0717 C.2       1 <0>         0.4615
      8 O1         -4.4176    0.3702   -1.0668 O.2       1 <0>        -0.5003
      9 O2         -3.8396   -1.7623   -1.0196 O.3       1 <0>        -0.3381
     10 C7         -5.2259   -2.1040   -0.9600 C.3       1 <0>         0.0284
     11 N1         -2.0293    1.4434   -1.1848 N.am      1 <0>        -0.7163
     12 C8         -0.9242    2.0531   -1.6573 C.2       1 <0>         0.5415
     13 O3         -0.0210    1.3933   -2.1261 O.2       1 <0>        -0.5094
     14 C9         -0.8107    3.5549   -1.6030 C.3       1 <0>        -0.1461
     15 S1          0.7799    4.0670   -2.3091 S.3       1 <0>        -0.0455
     16 C10         0.7603    5.8237   -2.1744 C.ar      1 <0>        -0.1808
     17 C11        -0.3330    6.4662   -1.6116 C.ar      1 <0>        -0.0871
     18 C12        -0.3458    7.8446   -1.5067 C.ar      1 <0>        -0.1602
     19 C13         0.7284    8.5868   -1.9616 C.ar      1 <0>        -0.0722
     20 C14         1.8222    7.9548   -2.5243 C.ar      1 <0>        -0.1831
     21 C15         1.8466    6.5725   -2.6281 C.ar      1 <0>         0.2417
     22 N2          2.9556    5.9302   -3.1919 N.pl3     1 <0>        -0.8711
     23 H2         -0.2733   -3.5631   -1.1004 H         1 <0>         0.0577
     24 H3         -0.9037   -2.1983   -2.0535 H         1 <0>         0.0538
     25 H4          0.5631   -1.9922   -1.0664 H         1 <0>         0.0576
     26 H5         -2.2715   -2.4655   -0.0420 H         1 <0>         0.0934
     27 H6          0.3614   -2.1435    1.4683 H         1 <0>         0.0552
     28 H7         -1.2536   -2.2515    2.2089 H         1 <0>         0.0531
     29 H8         -0.5807   -3.6477    1.3335 H         1 <0>         0.0587
     30 H9         -1.8915   -0.2111    0.9998 H         1 <0>         0.0715
     31 H10        -0.3474   -0.1033    0.1209 H         1 <0>         0.0885
     32 H11        -5.7330   -1.7204   -1.8453 H         1 <0>         0.0634
     33 H12        -5.3314   -3.1882   -0.9220 H         1 <0>         0.1073
     34 H13        -5.6705   -1.6642   -0.0673 H         1 <0>         0.0635
     35 H14        -2.7814    1.9730   -0.8769 H         1 <0>         0.4128
     36 H15        -1.6232    4.0016   -2.1759 H         1 <0>         0.1195
     37 H16        -0.8717    3.8866   -0.5665 H         1 <0>         0.1202
     38 H17        -1.1740    5.8896   -1.2559 H         1 <0>         0.1193
     39 H18        -1.1976    8.3432   -1.0683 H         1 <0>         0.1225
     40 H19         0.7131    9.6634   -1.8775 H         1 <0>         0.1249
     41 H20         2.6593    8.5378   -2.8789 H         1 <0>         0.1262
     42 H21         2.9694    4.9633   -3.2675 H         1 <0>         0.4010
     43 H22         3.7101    6.4522   -3.5069 H         1 <0>         0.4015
@<TRIPOS>BOND
     1    1    2 1
     2    1   23 1
     3    1   24 1
     4    1   25 1
     5    2    3 1
     6    2    4 1
     7    2   26 1
     8    3   27 1
     9    3   28 1
    10    3   29 1
    11    4    5 1
    12    4   30 1
    13    4   31 1
    14    5    6 1
    15    5    7 1
    16    5   11 1
    17    7    8 2
    18    7    9 1
    19    9   10 1
    20   10   32 1
    21   10   33 1
    22   10   34 1
    23   11   12 am
    24   11   35 1
    25   12   13 2
    26   12   14 1
    27   14   15 1
    28   14   36 1
    29   14   37 1
    30   15   16 1
    31   16   21 ar
    32   16   17 ar
    33   17   18 ar
    34   17   38 1
    35   18   19 ar
    36   18   39 1
    37   19   20 ar
    38   19   40 1
    39   20   21 ar
    40   20   41 1
    41   21   22 1
    42   22   42 1
    43   22   43 1
@<TRIPOS>MOLECULE
ZINC44867974
   46    46     0     0     0
SMALL
USER_CHARGES

@<TRIPOS>ATOM
      1 C1         -0.5479    1.2839    0.3317 C.3       1 <0>        -0.1513
      2 C2         -0.3214   -0.2204    0.1681 C.3       1 <0>        -0.1263
      3 C3          0.5105   -0.4771   -1.0900 C.3       1 <0>        -0.1255
      4 C4          0.7369   -1.9813   -1.2536 C.3       1 <0>        -0.0173
      5 C5         -0.6133   -2.6894   -1.3818 C.3       1 <0>        -0.0938
      6 C6         -0.3852   -4.1701   -1.6922 C.3       1 <0>        -0.1274
      7 C7         -1.7282   -4.9030   -1.6965 C.3       1 <0>        -0.1478
      8 C8          1.5563   -2.2341   -2.4929 C.2       1 <0>         0.3760
      9 N1          2.6450   -2.9255   -2.4175 N.2       1 <0>        -0.4012
     10 O1          3.4149   -3.1631   -3.5819 O.3       1 <0>        -0.4245
     11 N2          1.1446   -1.7280   -3.7057 N.pl3     1 <0>        -0.8669
     12 C9          1.4706   -2.5128   -0.0493 C.2       1 <0>         0.5507
     13 O2          0.9547   -3.3582    0.6507 O.2       1 <0>        -0.5257
     14 N3          2.6999   -2.0485    0.2500 N.am      1 <0>        -0.5910
     15 C10         3.2731   -0.9427   -0.5213 C.3       1 <0>         0.0730
     16 C11         3.4631   -2.6497    1.3465 C.3       1 <0>         0.1700
     17 C12         4.2973   -3.7862    0.8139 C.2       1 <0>        -0.1283
     18 C13         3.7874   -5.0703    0.7706 C.2       1 <0>        -0.1331
     19 C14         4.5640   -6.0699    0.2857 C.2       1 <0>        -0.1749
     20 S1          6.0671   -5.2011   -0.1302 S.3       1 <0>         0.0260
     21 C15         5.5568   -3.5636    0.3651 C.2       1 <0>        -0.1624
     22 H1          0.4140    1.7883    0.4230 H         1 <0>         0.0542
     23 H2         -1.0785    1.6683   -0.5394 H         1 <0>         0.0561
     24 H3         -1.1406    1.4667    1.2280 H         1 <0>         0.0582
     25 H4          0.2092   -0.6048    1.0392 H         1 <0>         0.0646
     26 H5         -1.2834   -0.7248    0.0768 H         1 <0>         0.0717
     27 H6         -0.0201   -0.0927   -1.9611 H         1 <0>         0.0781
     28 H7          1.4724    0.0274   -0.9987 H         1 <0>         0.0865
     29 H8         -1.1634   -2.5950   -0.4455 H         1 <0>         0.0880
     30 H9         -1.1876   -2.2334   -2.1882 H         1 <0>         0.0705
     31 H10         0.0853   -4.2680   -2.6705 H         1 <0>         0.0525
     32 H11         0.2636   -4.6050   -0.9319 H         1 <0>         0.0815
     33 H12        -2.3770   -4.4681   -2.4568 H         1 <0>         0.0497
     34 H13        -1.5658   -5.9579   -1.9177 H         1 <0>         0.0526
     35 H14        -2.1987   -4.8052   -0.7182 H         1 <0>         0.0560
     36 H15         4.2110   -3.6895   -3.4264 H         1 <0>         0.3989
     37 H16         0.3678   -1.1489   -3.7511 H         1 <0>         0.3959
     38 H17         1.6314   -1.9507   -4.5146 H         1 <0>         0.4091
     39 H18         3.0533    0.0009   -0.0219 H         1 <0>         0.0549
     40 H19         4.3529   -1.0721   -0.5945 H         1 <0>         0.0676
     41 H20         2.8395   -0.9341   -1.5213 H         1 <0>         0.0808
     42 H21         4.1151   -1.8975    1.7906 H         1 <0>         0.0844
     43 H22         2.7756   -3.0272    2.1034 H         1 <0>         0.0930
     44 H23         2.7854   -5.2741    1.1181 H         1 <0>         0.1351
     45 H24         4.3333   -7.1195    0.1790 H         1 <0>         0.1817
     46 H25         6.1087   -2.6364    0.3198 H         1 <0>         0.1799
@<TRIPOS>BOND
     1    1    2 1
     2    1   22 1
     3    1   23 1
     4    1   24 1
     5    2    3 1
     6    2   25 1
     7    2   26 1
     8    3    4 1
     9    3   27 1
    10    3   28 1
    11    4    5 1
    12    4    8 1
    13    4   12 1
    14    5    6 1
    15    5   29 1
    16    5   30 1
    17    6    7 1
    18    6   31 1
    19    6   32 1
    20    7   33 1
    21    7   34 1
    22    7   35 1
    23    8    9 2
    24    8   11 1
    25    9   10 1
    26   10   36 1
    27   11   37 1
    28   11   38 1
    29   12   13 2
    30   12   14 am
    31   14   15 1
    32   14   16 1
    33   15   39 1
    34   15   40 1
    35   15   41 1
    36   16   17 1
    37   16   42 1
    38   16   43 1
    39   17   21 2
    40   17   18 1
    41   18   19 2
    42   18   44 1
    43   19   20 1
    44   19   45 1
    45   20   21 1
    46   21   46 1
@<TRIPOS>MOLECULE
ZINC50036642
   39    39     0     0     0
SMALL
USER_CHARGES

@<TRIPOS>ATOM
      1 C1         -0.1233    1.4657   -0.0778 C.3       1 <0>        -0.1468
      2 C2         -0.1143   -0.0642   -0.0791 C.3       1 <0>        -0.1361
      3 C3         -1.5532   -0.5827   -0.0374 C.3       1 <0>         0.1451
      4 C4         -1.5498   -2.1074   -0.1643 C.3       1 <0>        -0.1326
      5 C5         -2.9905   -2.6155   -0.2480 C.3       1 <0>        -0.1543
      6 N1         -2.1736   -0.1998    1.2333 N.am      1 <0>        -0.7193
      7 C6         -2.7440    1.0140    1.3660 C.2       1 <0>         0.5150
      8 O1         -2.7437    1.7894    0.4334 O.2       1 <0>        -0.5066
      9 C7         -3.3822    1.4079    2.6732 C.3       1 <0>         0.0469
     10 O2         -3.9130    2.7302    2.5648 O.3       1 <0>        -0.3185
     11 C8         -4.5220    3.2365    3.6554 C.2       1 <0>         0.5321
     12 O3         -4.6001    2.5730    4.6708 O.2       1 <0>        -0.5171
     13 C9         -5.0923    4.5925    3.6169 C.ar      1 <0>        -0.2104
     14 C10        -4.8978    5.4058    2.4950 C.ar      1 <0>        -0.0101
     15 C11        -5.4345    6.6741    2.4644 C.ar      1 <0>        -0.0085
     16 C12        -6.1697    7.1510    3.5446 C.ar      1 <0>         0.1659
     17 C13        -6.3691    6.3578    4.6588 C.ar      1 <0>        -0.2280
     18 C14        -5.8396    5.0753    4.7035 C.ar      1 <0>         0.3103
     19 N2         -6.0436    4.2746    5.8207 N.pl3     1 <0>        -0.8418
     20 F1         -6.6913    8.3966    3.5047 F         1 <0>        -0.1169
     21 F2         -5.2455    7.4584    1.3807 F         1 <0>        -0.1271
     22 H1          0.9018    1.8351   -0.1075 H         1 <0>         0.0474
     23 H2         -0.6650    1.8266   -0.9521 H         1 <0>         0.0608
     24 H3         -0.6130    1.8254    0.8271 H         1 <0>         0.0536
     25 H4          0.3754   -0.4240   -0.9840 H         1 <0>         0.0732
     26 H5          0.4274   -0.4251    0.7952 H         1 <0>         0.0635
     27 H6         -2.1191   -0.1507   -0.8627 H         1 <0>         0.0922
     28 H7         -1.0099   -2.3958   -1.0662 H         1 <0>         0.0814
     29 H8         -1.0608   -2.5434    0.7069 H         1 <0>         0.0692
     30 H9         -3.5304   -2.3272    0.6540 H         1 <0>         0.0541
     31 H10        -3.4795   -2.1795   -1.1191 H         1 <0>         0.0566
     32 H11        -2.9881   -3.7017   -0.3384 H         1 <0>         0.0582
     33 H12        -2.1738   -0.8200    1.9792 H         1 <0>         0.4014
     34 H13        -4.1870    0.7116    2.9089 H         1 <0>         0.1016
     35 H14        -2.6342    1.3804    3.4655 H         1 <0>         0.1016
     36 H15        -4.3273    5.0396    1.6542 H         1 <0>         0.1640
     37 H16        -6.9409    6.7346    5.4939 H         1 <0>         0.1561
     38 H17        -5.6042    3.4123    5.8862 H         1 <0>         0.4207
     39 H18        -6.6255    4.5780    6.5350 H         1 <0>         0.4031
@<TRIPOS>BOND
     1    1    2 1
     2    1   22 1
     3    1   23 1
     4    1   24 1
     5    2    3 1
     6    2   25 1
     7    2   26 1
     8    3    4 1
     9    3    6 1
    10    3   27 1
    11    4    5 1
    12    4   28 1
    13    4   29 1
    14    5   30 1
    15    5   31 1
    16    5   32 1
    17    6    7 am
    18    6   33 1
    19    7    8 2
    20    7    9 1
    21    9   10 1
    22    9   34 1
    23    9   35 1
    24   10   11 1
    25   11   12 2
    26   11   13 1
    27   13   18 ar
    28   13   14 ar
    29   14   15 ar
    30   14   36 1
    31   15   16 ar
    32   15   21 1
    33   16   17 ar
    34   16   20 1
    35   17   18 ar
    36   17   37 1
    37   18   19 1
    38   19   38 1
    39   19   39 1
@<TRIPOS>MOLECULE
ZINC61609044
   42    42     0     0     0
SMALL
USER_CHARGES

@<TRIPOS>ATOM
      1 C1         -0.0187    1.5258    0.0104 C.3       1 <0>        -0.1878
      2 C2          0.0021   -0.0041    0.0020 C.3       1 <0>        -0.0104
      3 N1          0.6897   -0.4778   -1.2066 N.4       1 <0>        -0.5076
      4 C3          0.7096   -1.9467   -1.2147 C.3       1 <0>         0.0462
      5 H1         -0.3082   -2.3244   -1.1174 H         1 <0>         0.1463
      6 C4          1.5550   -2.4517   -0.0438 C.3       1 <0>        -0.1817
      7 C5          1.3136   -2.4413   -2.5305 C.3       1 <0>        -0.1727
      8 C6          0.4149   -2.0485   -3.6747 C.2       1 <0>         0.4985
      9 O1         -0.6079   -1.4334   -3.4590 O.2       1 <0>        -0.5714
     10 N2          0.7479   -2.3806   -4.9378 N.am      1 <0>        -0.6904
     11 C7         -0.1257   -1.9987   -6.0501 C.3       1 <0>         0.1421
     12 C8          0.4783   -2.4933   -7.3660 C.3       1 <0>        -0.1394
     13 H2          1.4961   -2.1156   -7.4632 H         1 <0>         0.0763
     14 C9         -0.3545   -1.9959   -8.5193 C.ar      1 <0>        -0.0530
     15 C10        -1.6896   -2.3429   -8.6080 C.ar      1 <0>        -0.0938
     16 C11        -2.4535   -1.8866   -9.6659 C.ar      1 <0>        -0.1254
     17 C12        -1.8823   -1.0830  -10.6349 C.ar      1 <0>        -0.1309
     18 C13        -0.5474   -0.7353  -10.5457 C.ar      1 <0>        -0.1273
     19 C14         0.2154   -1.1880   -9.4855 C.ar      1 <0>        -0.1217
     20 C15         0.4987   -4.0002   -7.3743 C.2       1 <0>         0.5009
     21 O2         -0.5438   -4.6245   -7.2756 O.co2     1 <0>        -0.6771
     22 O3          1.5578   -4.5949   -7.4796 O.co2     1 <0>        -0.6901
     23 H3          1.0039    1.9031    0.0027 H         1 <0>         0.0780
     24 H4         -0.5459    1.8868   -0.8726 H         1 <0>         0.0808
     25 H5         -0.5289    1.8773    0.9072 H         1 <0>         0.1039
     26 H6          0.5293   -0.3651    0.8851 H         1 <0>         0.1286
     27 H7         -1.0205   -0.3814    0.0098 H         1 <0>         0.1303
     28 H8          0.2017   -0.1436   -2.0240 H         1 <0>         0.4354
     29 H9          2.5729   -2.0740   -0.1410 H         1 <0>         0.0820
     30 H10         1.1248   -2.0993    0.8937 H         1 <0>         0.0835
     31 H11         1.5698   -3.5416   -0.0498 H         1 <0>         0.1073
     32 H12         2.2970   -1.9925   -2.6703 H         1 <0>         0.1173
     33 H13         1.4104   -3.5266   -2.5006 H         1 <0>         0.1427
     34 H14         1.5659   -2.8725   -5.1103 H         1 <0>         0.4137
     35 H15        -1.1091   -2.4475   -5.9104 H         1 <0>         0.0824
     36 H16        -0.2225   -0.9134   -6.0800 H         1 <0>         0.0646
     37 H17        -2.1359   -2.9707   -7.8510 H         1 <0>         0.1336
     38 H18        -3.4965   -2.1582   -9.7356 H         1 <0>         0.1182
     39 H19        -2.4790   -0.7271  -11.4618 H         1 <0>         0.1163
     40 H20        -0.1011   -0.1077  -11.3029 H         1 <0>         0.1170
     41 H21         1.2574   -0.9134   -9.4138 H         1 <0>         0.1160
     42 H22         1.6363   -0.1286   -1.2138 H         1 <0>         0.4184
@<TRIPOS>BOND
     1    1    2 1
     2    1   23 1
     3    1   24 1
     4    1   25 1
     5    2    3 1
     6    2   26 1
     7    2   27 1
     8    3    4 1
     9    3   28 1
    10    3   42 1
    11    4    5 1
    12    4    6 1
    13    4    7 1
    14    6   29 1
    15    6   30 1
    16    6   31 1
    17    7    8 1
    18    7   32 1
    19    7   33 1
    20    8    9 2
    21    8   10 am
    22   10   11 1
    23   10   34 1
    24   11   12 1
    25   11   35 1
    26   11   36 1
    27   12   13 1
    28   12   14 1
    29   12   20 1
    30   14   19 ar
    31   14   15 ar
    32   15   16 ar
    33   15   37 1
    34   16   17 ar
    35   16   38 1
    36   17   18 ar
    37   17   39 1
    38   18   19 ar
    39   18   40 1
    40   19   41 1
    41   20   21 2
    42   20   22 1
@<TRIPOS>MOLECULE
ZINC29802367
   49    49     0     0     0
SMALL
USER_CHARGES
(2S)-2-[4-(allylcarbamoylamino)anilino]-N-[(1S)-1-methylpropyl]propanamide
@<TRIPOS>ATOM
      1 C1          1.7898   12.9705   -0.0828 C.3       1 <0>        -0.1547
      2 C2          2.0474   12.6718    1.3955 C.3       1 <0>        -0.1308
      3 C3          0.9869   11.6971    1.9113 C.3       1 <0>         0.1428
      4 H1         -0.0235   12.0713    1.6900 H         1 <0>         0.0876
      5 C4          1.1688   11.4953    3.4169 C.3       1 <0>        -0.1653
      6 N1          1.1310   10.4107    1.2252 N.am      1 <0>        -0.7327
      7 C5          0.0718    9.5851    1.1117 C.2       1 <0>         0.5150
      8 O1         -1.0007    9.9071    1.5776 O.2       1 <0>        -0.5385
      9 C6          0.2201    8.2619    0.4059 C.3       1 <0>         0.1366
     10 H2          0.9481    7.6340    0.9405 H         1 <0>         0.1017
     11 C7          0.6585    8.5015   -1.0402 C.3       1 <0>        -0.1652
     12 N2         -1.0638    7.5563    0.4164 N.pl3     1 <0>        -0.7450
     13 C8         -1.0961    6.1610    0.3168 C.ar      1 <0>         0.2110
     14 C9         -2.3131    5.4920    0.3268 C.ar      1 <0>        -0.1750
     15 C10        -2.3447    4.1152    0.2280 C.ar      1 <0>        -0.0970
     16 C11        -1.1600    3.3995    0.1188 C.ar      1 <0>         0.1085
     17 C12         0.0570    4.0677    0.1146 C.ar      1 <0>        -0.0705
     18 C13         0.0888    5.4449    0.2076 C.ar      1 <0>        -0.1856
     19 N3         -1.1924    2.0015    0.0186 N.am      1 <0>        -0.6960
     20 C14        -0.2622    1.3566   -0.7131 C.2       1 <0>         0.7042
     21 O2          0.5441    1.9903   -1.3664 O.2       1 <0>        -0.5825
     22 N4         -0.2293    0.0093   -0.7251 N.am      1 <0>        -0.7521
     23 C15         0.7780   -0.6917   -1.5252 C.3       1 <0>         0.1683
     24 C16         0.5994   -2.1796   -1.3661 C.2       1 <0>        -0.1814
     25 C17         0.4423   -2.9372   -2.4232 C.2       1 <0>        -0.1662
     26 H3          2.5523   13.6713   -0.4535 H         1 <0>         0.0574
     27 H4          0.7922   13.4196   -0.1977 H         1 <0>         0.0551
     28 H5          1.8396   12.0354   -0.6599 H         1 <0>         0.0557
     29 H6          3.0450   12.2227    1.5104 H         1 <0>         0.0697
     30 H7          1.9976   13.6069    1.9726 H         1 <0>         0.0790
     31 H8          0.4063   10.7945    3.7877 H         1 <0>         0.0600
     32 H9          1.0605   12.4612    3.9320 H         1 <0>         0.0664
     33 H10         2.1704   11.0851    3.6135 H         1 <0>         0.0580
     34 H11         2.1037   10.1186    0.8027 H         1 <0>         0.4193
     35 H12         0.7667    7.5356   -1.5553 H         1 <0>         0.0740
     36 H13         1.6225    9.0313   -1.0481 H         1 <0>         0.0673
     37 H14        -0.0985    9.1098   -1.5568 H         1 <0>         0.0653
     38 H15        -2.0024    8.1234    0.5026 H         1 <0>         0.4283
     39 H16        -3.2347    6.0487    0.4114 H         1 <0>         0.1233
     40 H17        -3.2911    3.5949    0.2354 H         1 <0>         0.1227
     41 H18         0.9786    3.5104    0.0341 H         1 <0>         0.1314
     42 H19         1.0353    5.9650    0.1995 H         1 <0>         0.1203
     43 H20        -1.9770    1.4310    0.5372 H         1 <0>         0.4239
     44 H21        -0.9588   -0.5640   -0.1341 H         1 <0>         0.4168
     45 H22         0.6595   -0.4193   -2.5843 H         1 <0>         0.0687
     46 H23         1.7831   -0.4043   -1.1829 H         1 <0>         0.0730
     47 H24         0.6010   -2.6295   -0.3623 H         1 <0>         0.1178
     48 H25         0.3119   -4.0233   -2.3071 H         1 <0>         0.1066
     49 H26         0.4407   -2.4873   -3.4270 H         1 <0>         0.1028
@<TRIPOS>BOND
     1    1    2 1
     2    1   26 1
     3    1   27 1
     4    1   28 1
     5    2    3 1
     6    2   29 1
     7    2   30 1
     8    3    4 1
     9    3    5 1
    10    3    6 1
    11    5   31 1
    12    5   32 1
    13    5   33 1
    14    6    7 am
    15    6   34 1
    16    7    8 2
    17    7    9 1
    18    9   10 1
    19    9   11 1
    20    9   12 1
    21   11   35 1
    22   11   36 1
    23   11   37 1
    24   12   13 1
    25   12   38 1
    26   13   18 ar
    27   13   14 ar
    28   14   15 ar
    29   14   39 1
    30   15   16 ar
    31   15   40 1
    32   16   17 ar
    33   16   19 1
    34   17   18 ar
    35   17   41 1
    36   18   42 1
    37   19   20 am
    38   19   43 1
    39   20   21 2
    40   20   22 am
    41   22   23 1
    42   22   44 1
    43   23   24 1
    44   23   45 1
    45   23   46 1
    46   24   25 2
    47   24   47 1
    48   25   48 1
    49   25   49 1
@<TRIPOS>MOLECULE
ZINC40707423
   38    40     0     0     0
SMALL
USER_CHARGES

@<TRIPOS>ATOM
      1 C1         -0.0187    1.5258    0.0104 C.3       1 <0>        -0.1683
      2 C2          0.0021   -0.0041    0.0020 C.3       1 <0>         0.1300
      3 N1          0.6878   -0.4765   -1.2033 N.pl3     1 <0>        -0.7176
      4 C3          0.8312   -1.8397   -1.4319 C.ar      1 <0>         0.4060
      5 C4          1.4881   -2.3020   -2.5746 C.ar      1 <0>         0.0197
      6 C5          1.6047   -3.6807   -2.7550 C.ar      1 <0>         0.3706
      7 N2          1.0894   -4.4969   -1.8384 N.ar      1 <0>        -0.5126
      8 C6          0.4771   -4.0195   -0.7742 C.ar      1 <0>         0.3204
      9 N3          0.3497   -2.7248   -0.5630 N.ar      1 <0>        -0.5600
     10 N4          2.2494   -4.1946   -3.8762 N.pl3     1 <0>        -0.5923
     11 C7          2.3588   -5.5625   -4.0443 C.2       1 <0>         0.3821
     12 N5          1.9187   -6.5253   -3.2679 N.2       1 <0>        -0.4937
     13 C8          2.0985   -7.8333   -3.5601 C.ar      1 <0>         0.0745
     14 C9          1.6782   -8.9587   -2.8147 C.ar      1 <0>        -0.0261
     15 C10         1.9426  -10.2296   -3.2532 C.ar      1 <0>        -0.1867
     16 C11         2.6307  -10.4591   -4.4408 C.ar      1 <0>         0.1397
     17 C12         3.0571   -9.3766   -5.1961 C.ar      1 <0>        -0.0971
     18 C13         2.7939   -8.1019   -4.7606 C.ar      1 <0>        -0.1152
     19 S1          3.1285   -6.4698   -5.3779 S.3       1 <0>        -0.0062
     20 O1          2.8826  -11.7295   -4.8557 O.3       1 <0>        -0.3105
     21 C14         2.4111  -12.7898   -4.0217 C.3       1 <0>         0.0252
     22 N6          2.0162   -1.4042   -3.5158 N.pl3     1 <0>        -0.8753
     23 H1          1.0039    1.9031    0.0027 H         1 <0>         0.0603
     24 H2         -0.5459    1.8868   -0.8726 H         1 <0>         0.0603
     25 H3         -0.5289    1.8773    0.9072 H         1 <0>         0.0764
     26 H4          0.5293   -0.3651    0.8851 H         1 <0>         0.0664
     27 H5         -1.0205   -0.3814    0.0098 H         1 <0>         0.0665
     28 H6          1.0417    0.1622   -1.8418 H         1 <0>         0.4031
     29 H7          0.0706   -4.7103   -0.0504 H         1 <0>         0.1979
     30 H8          2.6219   -3.5930   -4.5397 H         1 <0>         0.4318
     31 H9          1.1424   -8.8149   -1.8880 H         1 <0>         0.1386
     32 H10         1.6101  -11.0716   -2.6642 H         1 <0>         0.1389
     33 H11         3.5928   -9.5357   -6.1203 H         1 <0>         0.1402
     34 H12         2.8687  -12.7075   -3.0358 H         1 <0>         0.0586
     35 H13         1.3274  -12.7223   -3.9260 H         1 <0>         0.0587
     36 H14         2.6775  -13.7482   -4.4671 H         1 <0>         0.1035
     37 H15         1.9273   -0.4483   -3.3773 H         1 <0>         0.3978
     38 H16         2.4699   -1.7398   -4.3048 H         1 <0>         0.3943
@<TRIPOS>BOND
     1    1    2 1
     2    1   23 1
     3    1   24 1
     4    1   25 1
     5    2    3 1
     6    2   26 1
     7    2   27 1
     8    3    4 1
     9    3   28 1
    10    4    9 ar
    11    4    5 ar
    12    5    6 ar
    13    5   22 1
    14    6    7 ar
    15    6   10 1
    16    7    8 ar
    17    8    9 ar
    18    8   29 1
    19   10   11 1
    20   10   30 1
    21   11   19 1
    22   11   12 2
    23   12   13 1
    24   13   18 ar
    25   13   14 ar
    26   14   15 ar
    27   14   31 1
    28   15   16 ar
    29   15   32 1
    30   16   17 ar
    31   16   20 1
    32   17   18 ar
    33   17   33 1
    34   18   19 1
    35   20   21 1
    36   21   34 1
    37   21   35 1
    38   21   36 1
    39   22   37 1
    40   22   38 1
@<TRIPOS>MOLECULE
ZINC46851345
   45    46     0     0     0
SMALL
USER_CHARGES

@<TRIPOS>ATOM
      1 C1          0.0248    1.5032    0.0057 C.3       1 <0>        -0.1140
      2 C2          0.0337   -0.0037   -0.0013 C.ar      1 <0>        -0.0966
      3 C3          0.6315   -0.6854   -1.0457 C.ar      1 <0>        -0.1083
      4 C4          0.6414   -2.0662   -1.0550 C.ar      1 <0>        -0.1111
      5 C5          0.0502   -2.7705   -0.0142 C.ar      1 <0>         0.1530
      6 C6         -0.5491   -2.0833    1.0328 C.ar      1 <0>        -0.1088
      7 C7         -0.5507   -0.7019    1.0392 C.ar      1 <0>        -0.1041
      8 C8         -1.1923   -2.8435    2.1640 C.3       1 <0>        -0.1147
      9 N1          0.0581   -4.1699   -0.0209 N.am      1 <0>        -0.6821
     10 C9         -0.0405   -4.8388   -1.1869 C.2       1 <0>         0.7067
     11 O1         -0.0539   -4.2286   -2.2385 O.2       1 <0>        -0.5689
     12 N2         -0.1242   -6.1839   -1.1871 N.am      1 <0>        -0.7393
     13 C10        -0.2314   -6.9110   -2.4545 C.3       1 <0>         0.1271
     14 C11        -0.3112   -8.4132   -2.1755 C.3       1 <0>         0.1089
     15 N3         -0.4184   -9.1402   -3.4428 N.am      1 <0>        -0.7249
     16 C12        -0.5021  -10.4854   -3.4431 C.2       1 <0>         0.5647
     17 O2         -0.4887  -11.0955   -2.3915 O.2       1 <0>        -0.5317
     18 C13        -0.6101  -11.2179   -4.7200 C.ar      1 <0>        -0.1499
     19 C14        -0.6198  -10.5189   -5.9299 C.ar      1 <0>        -0.0675
     20 C15        -0.7202  -11.2059   -7.1190 C.ar      1 <0>        -0.1536
     21 C16        -0.8122  -12.5928   -7.1169 C.ar      1 <0>         0.1371
     22 C17        -0.8029  -13.2918   -5.9155 C.ar      1 <0>        -0.1537
     23 C18        -0.6970  -12.6125   -4.7224 C.ar      1 <0>        -0.0395
     24 O3         -0.9120  -13.2663   -8.2909 O.3       1 <0>        -0.4975
     25 H1          0.9177    1.8695    0.5122 H         1 <0>         0.0699
     26 H2          0.0122    1.8713   -1.0202 H         1 <0>         0.0662
     27 H3         -0.8621    1.8588    0.5302 H         1 <0>         0.0655
     28 H4          1.0908   -0.1372   -1.8549 H         1 <0>         0.1246
     29 H5          1.1081   -2.5980   -1.8711 H         1 <0>         0.1409
     30 H6         -1.0129   -0.1667    1.8555 H         1 <0>         0.1254
     31 H7         -0.4547   -3.0242    2.9460 H         1 <0>         0.0710
     32 H8         -2.0178   -2.2596    2.5711 H         1 <0>         0.0716
     33 H9         -1.5695   -3.7965    1.7931 H         1 <0>         0.0623
     34 H10         0.1346   -4.6585    0.8135 H         1 <0>         0.4069
     35 H11        -0.1135   -6.6707   -0.3481 H         1 <0>         0.4013
     36 H12        -1.1300   -6.5911   -2.9819 H         1 <0>         0.0773
     37 H13         0.6444   -6.7015   -3.0687 H         1 <0>         0.0773
     38 H14         0.5874   -8.7330   -1.6480 H         1 <0>         0.0785
     39 H15        -1.1870   -8.6226   -1.5613 H         1 <0>         0.0784
     40 H16        -0.4291   -8.6534   -4.2818 H         1 <0>         0.4037
     41 H17        -0.5491   -9.4412   -5.9324 H         1 <0>         0.1313
     42 H18        -0.7279  -10.6664   -8.0546 H         1 <0>         0.1376
     43 H19        -0.8746  -14.3694   -5.9180 H         1 <0>         0.1385
     44 H20        -0.6856  -13.1566   -3.7895 H         1 <0>         0.1424
     45 H21        -0.0604  -13.5199   -8.6724 H         1 <0>         0.3978
@<TRIPOS>BOND
     1    1    2 1
     2    1   25 1
     3    1   26 1
     4    1   27 1
     5    2    7 ar
     6    2    3 ar
     7    3    4 ar
     8    3   28 1
     9    4    5 ar
    10    4   29 1
    11    5    6 ar
    12    5    9 1
    13    6    7 ar
    14    6    8 1
    15    7   30 1
    16    8   31 1
    17    8   32 1
    18    8   33 1
    19    9   10 am
    20    9   34 1
    21   10   11 2
    22   10   12 am
    23   12   13 1
    24   12   35 1
    25   13   14 1
    26   13   36 1
    27   13   37 1
    28   14   15 1
    29   14   38 1
    30   14   39 1
    31   15   16 am
    32   15   40 1
    33   16   17 2
    34   16   18 1
    35   18   23 ar
    36   18   19 ar
    37   19   20 ar
    38   19   41 1
    39   20   21 ar
    40   20   42 1
    41   21   22 ar
    42   21   24 1
    43   22   23 ar
    44   22   43 1
    45   23   44 1
    46   24   45 1
@<TRIPOS>MOLECULE
ZINC58948601
   43    44     0     0     0
SMALL
USER_CHARGES

@<TRIPOS>ATOM
      1 C1         -3.2268   -2.0222   -0.8134 C.3       1 <0>        -0.1514
      2 C2         -1.7826   -1.5505   -0.6332 C.3       1 <0>         0.0571
      3 O1         -0.9647   -2.1180   -1.6584 O.3       1 <0>        -0.3427
      4 C3          0.3462   -1.7993   -1.6427 C.2       1 <0>         0.5328
      5 O2          0.7821   -1.0592   -0.7811 O.2       1 <0>        -0.4913
      6 C4          1.2152   -2.3264   -2.6296 C.2       1 <0>        -0.2240
      7 C5          1.5956   -3.6081   -2.5539 C.2       1 <0>         0.1457
      8 O3          2.4176   -4.1602   -3.4604 O.3       1 <0>        -0.2394
      9 C6          3.1738   -3.3733   -4.2465 C.2       1 <0>         0.4031
     10 C7          2.8819   -2.0601   -4.4245 C.2       1 <0>        -0.3686
     11 C8          1.6891   -1.4381   -3.7471 C.3       1 <0>         0.1016
     12 H1          1.9715   -0.4664   -3.3420 H         1 <0>         0.0947
     13 C9          0.5772   -1.2568   -4.7479 C.ar      1 <0>        -0.0842
     14 C10         0.0408   -2.3561   -5.3919 C.ar      1 <0>        -0.0937
     15 C11        -0.9791   -2.1898   -6.3100 C.ar      1 <0>        -0.1186
     16 C12        -1.4631   -0.9242   -6.5838 C.ar      1 <0>        -0.0840
     17 C13        -0.9273    0.1751   -5.9391 C.ar      1 <0>        -0.1174
     18 C14         0.0897    0.0083   -5.0179 C.ar      1 <0>        -0.1054
     19 C15        -2.5743   -0.7427   -7.5854 C.3       1 <0>        -0.1162
     20 C16         3.6996   -1.2728   -5.2543 C.2       1 <0>         0.5944
     21 O4          4.5381   -0.5375   -4.7628 O.2       1 <0>        -0.5409
     22 N1          3.5562   -1.3313   -6.5931 N.am      1 <0>        -0.8500
     23 N2          4.2632   -3.9094   -4.8811 N.pl3     1 <0>        -0.8360
     24 C17         1.0862   -4.4559   -1.4169 C.3       1 <0>        -0.1151
     25 H2         -3.5940   -1.7038   -1.7890 H         1 <0>         0.0671
     26 H3         -3.2647   -3.1096   -0.7481 H         1 <0>         0.0667
     27 H4         -3.8507   -1.5894   -0.0314 H         1 <0>         0.0802
     28 H5         -1.7447   -0.4631   -0.6985 H         1 <0>         0.0686
     29 H6         -1.4154   -1.8689    0.3425 H         1 <0>         0.0685
     30 H7          0.4189   -3.3449   -5.1780 H         1 <0>         0.1145
     31 H8         -1.3977   -3.0486   -6.8137 H         1 <0>         0.1209
     32 H9         -1.3052    1.1639   -6.1533 H         1 <0>         0.1214
     33 H10         0.5058    0.8667   -4.5115 H         1 <0>         0.1194
     34 H11        -3.5360   -0.8018   -7.0758 H         1 <0>         0.0704
     35 H12        -2.4762    0.2314   -8.0645 H         1 <0>         0.0658
     36 H13        -2.5145   -1.5266   -8.3404 H         1 <0>         0.0660
     37 H14         2.8888   -1.9166   -6.9842 H         1 <0>         0.4018
     38 H15         4.1203   -0.7882   -7.1655 H         1 <0>         0.3995
     39 H16         4.4263   -4.8647   -4.8413 H         1 <0>         0.4095
     40 H17         4.8715   -3.3335   -5.3702 H         1 <0>         0.4244
     41 H18         0.1310   -4.9012   -1.6954 H         1 <0>         0.1024
     42 H19         1.8061   -5.2454   -1.2014 H         1 <0>         0.0925
     43 H20         0.9528   -3.8342   -0.5316 H         1 <0>         0.0900
@<TRIPOS>BOND
     1    1    2 1
     2    1   25 1
     3    1   26 1
     4    1   27 1
     5    2    3 1
     6    2   28 1
     7    2   29 1
     8    3    4 1
     9    4    5 2
    10    4    6 1
    11    6   11 1
    12    6    7 2
    13    7    8 1
    14    7   24 1
    15    8    9 1
    16    9   10 2
    17    9   23 1
    18   10   11 1
    19   10   20 1
    20   11   12 1
    21   11   13 1
    22   13   18 ar
    23   13   14 ar
    24   14   15 ar
    25   14   30 1
    26   15   16 ar
    27   15   31 1
    28   16   17 ar
    29   16   19 1
    30   17   18 ar
    31   17   32 1
    32   18   33 1
    33   19   34 1
    34   19   35 1
    35   19   36 1
    36   20   21 2
    37   20   22 am
    38   22   37 1
    39   22   38 1
    40   23   39 1
    41   23   40 1
    42   24   41 1
    43   24   42 1
    44   24   43 1
@<TRIPOS>MOLECULE
ZINC00058355
   42    43     0     0     0
SMALL
USER_CHARGES

@<TRIPOS>ATOM
      1 C1         -0.0184    1.5028    0.0103 C.3       1 <0>        -0.1094
      2 C2          0.0021   -0.0041    0.0020 C.ar      1 <0>        -0.1558
      3 C3          0.0057   -0.6889   -1.1975 C.ar      1 <0>        -0.0731
      4 C4          0.0240   -2.0714   -1.2060 C.ar      1 <0>        -0.1727
      5 C5          0.0391   -2.7733   -0.0143 C.ar      1 <0>        -0.0776
      6 C6          0.0360   -2.0949    1.1884 C.ar      1 <0>        -0.1975
      7 C7          0.0230   -0.7057    1.2005 C.ar      1 <0>         0.2155
      8 N1          0.0251   -0.0163    2.4152 N.pl3     1 <0>        -0.7375
      9 C8          0.0472   -0.7580    3.6784 C.3       1 <0>         0.1135
     10 C9          0.0449    0.2128    4.8311 C.2       1 <0>         0.5267
     11 O1          0.0266    1.4070    4.6183 O.2       1 <0>        -0.4921
     12 N2          0.0631   -0.2457    6.0983 N.am      1 <0>        -0.5840
     13 N3          0.0610    0.6568    7.1699 N.2       1 <0>        -0.2015
     14 C10         0.0786    0.2152    8.3903 C.2       1 <0>         0.1304
     15 C11         0.1013   -1.2683    8.6546 C.3       1 <0>        -0.1580
     16 C12         0.0763    1.1646    9.5176 C.ar      1 <0>        -0.0624
     17 C13         0.1010    0.6932   10.8321 C.ar      1 <0>        -0.1046
     18 C14         0.0992    1.5902   11.8852 C.ar      1 <0>         0.0930
     19 C15         0.0730    2.9566   11.6380 C.ar      1 <0>        -0.1108
     20 C16         0.0479    3.4305   10.3402 C.ar      1 <0>        -0.1344
     21 C17         0.0552    2.5445    9.2757 C.ar      1 <0>         0.1399
     22 O2          0.0363    3.0123    8.0000 O.3       1 <0>        -0.4715
     23 O3          0.1228    1.1330   13.1656 O.3       1 <0>        -0.4958
     24 H1          1.0042    1.8801    0.0026 H         1 <0>         0.0671
     25 H2         -0.5455    1.8639   -0.8728 H         1 <0>         0.0681
     26 H3         -0.5286    1.8543    0.9071 H         1 <0>         0.0602
     27 H4         -0.0060   -0.1439   -2.1298 H         1 <0>         0.1218
     28 H5          0.0261   -2.6044   -2.1453 H         1 <0>         0.1188
     29 H6          0.0529   -3.8531   -0.0245 H         1 <0>         0.1205
     30 H7          0.0474   -2.6436    2.1185 H         1 <0>         0.1189
     31 H8          0.0120    0.9536    2.4225 H         1 <0>         0.4123
     32 H9         -0.8336   -1.3971    3.7399 H         1 <0>         0.0944
     33 H10         0.9461   -1.3729    3.7230 H         1 <0>         0.0947
     34 H11         0.0777   -1.2006    6.2684 H         1 <0>         0.3871
     35 H12         1.1343   -1.6119    8.7086 H         1 <0>         0.0893
     36 H13        -0.4008   -1.4767    9.5994 H         1 <0>         0.0911
     37 H14        -0.4132   -1.7891    7.8471 H         1 <0>         0.0713
     38 H15         0.1211   -0.3691   11.0259 H         1 <0>         0.1404
     39 H16         0.0717    3.6522   12.4642 H         1 <0>         0.1371
     40 H17         0.0272    4.4944   10.1556 H         1 <0>         0.1395
     41 H18        -0.8525    3.1357    7.6395 H         1 <0>         0.3937
     42 H19         1.0129    1.0154   13.5250 H         1 <0>         0.3932
@<TRIPOS>BOND
     1    1    2 1
     2    1   24 1
     3    1   25 1
     4    1   26 1
     5    2    7 ar
     6    2    3 ar
     7    3    4 ar
     8    3   27 1
     9    4    5 ar
    10    4   28 1
    11    5    6 ar
    12    5   29 1
    13    6    7 ar
    14    6   30 1
    15    7    8 1
    16    8    9 1
    17    8   31 1
    18    9   10 1
    19    9   32 1
    20    9   33 1
    21   10   11 2
    22   10   12 am
    23   12   13 1
    24   12   34 1
    25   13   14 2
    26   14   15 1
    27   14   16 1
    28   15   35 1
    29   15   36 1
    30   15   37 1
    31   16   21 ar
    32   16   17 ar
    33   17   18 ar
    34   17   38 1
    35   18   19 ar
    36   18   23 1
    37   19   20 ar
    38   19   39 1
    39   20   21 ar
    40   20   40 1
    41   21   22 1
    42   22   41 1
    43   23   42 1
@<TRIPOS>MOLECULE
ZINC02510544
   25    26     0     0     0
SMALL
USER_CHARGES
(1-thiazol-2-ylpyrrol-2-yl)methyleneaminothiourea
@<TRIPOS>ATOM
      1 C1          1.0751    1.8776    0.0019 C.2       1 <0>        -0.1894
      2 C2          0.6303    3.2082    0.0133 C.2       1 <0>        -0.0850
      3 C3         -0.7466    3.1776    0.0263 C.2       1 <0>         0.0123
      4 N1         -1.1333    1.8559    0.0169 N.pl3     1 <0>        -0.3478
      5 C4         -0.0126    1.0758    0.0080 C.2       1 <0>         0.0575
      6 C5         -2.4465    1.3927    0.0198 C.2       1 <0>         0.2759
      7 N2         -2.8865    0.1498    0.0153 N.2       1 <0>        -0.5180
      8 C6         -4.1768   -0.1185    0.0191 C.2       1 <0>         0.0531
      9 C7         -5.0520    0.9173    0.0279 C.2       1 <0>        -0.2098
     10 S1         -3.9247    2.3037    0.0381 S.3       1 <0>         0.0861
     11 C8         -1.6391    4.3414    0.0410 C.2       1 <0>         0.1744
     12 N3         -1.1410    5.5428    0.0432 N.2       1 <0>        -0.2683
     13 N4         -1.9936    6.6545    0.0573 N.pl3     1 <0>        -0.5363
     14 C9         -1.4775    7.8995    0.0596 C.2       1 <0>         0.6035
     15 S2         -2.5192    9.2580    0.0768 S.2       1 <0>        -0.6105
     16 N5         -0.1412    8.0751    0.0482 N.pl3     1 <0>        -0.7820
     17 H1          2.1047    1.5518   -0.0100 H         1 <0>         0.1607
     18 H2          1.2516    4.0916    0.0126 H         1 <0>         0.1617
     19 H3          0.0021   -0.0041    0.0020 H         1 <0>         0.1834
     20 H4         -4.5289   -1.1395    0.0157 H         1 <0>         0.1845
     21 H5         -6.1320    0.9071    0.0322 H         1 <0>         0.2089
     22 H6         -2.7098    4.2006    0.0501 H         1 <0>         0.1226
     23 H7         -2.9553    6.5281    0.0655 H         1 <0>         0.4196
     24 H8          0.4490    7.3055    0.0385 H         1 <0>         0.4094
     25 H9          0.2302    8.9712    0.0498 H         1 <0>         0.4335
@<TRIPOS>BOND
     1    1    5 2
     2    1    2 1
     3    1   17 1
     4    2    3 2
     5    2   18 1
     6    3    4 1
     7    3   11 1
     8    4    5 1
     9    4    6 1
    10    5   19 1
    11    6   10 1
    12    6    7 2
    13    7    8 1
    14    8    9 2
    15    8   20 1
    16    9   10 1
    17    9   21 1
    18   11   12 2
    19   11   22 1
    20   12   13 1
    21   13   14 1
    22   13   23 1
    23   14   15 2
    24   14   16 1
    25   16   24 1
    26   16   25 1
@<TRIPOS>MOLECULE
ZINC36721713
   36    36     0     0     0
SMALL
USER_CHARGES

@<TRIPOS>ATOM
      1 C1         -0.4509    1.6186    1.2724 C.3       1 <0>        -0.1552
      2 C2         -0.3727    0.0908    1.2920 C.3       1 <0>        -0.1072
      3 C3         -1.5971   -0.4917    0.5831 C.3       1 <0>        -0.1094
      4 H1         -2.5040   -0.0970    1.0411 H         1 <0>         0.1031
      5 C4         -1.5624   -0.1037   -0.8964 C.3       1 <0>        -0.1493
      6 C5         -1.5833   -1.9934    0.7091 C.2       1 <0>         0.5174
      7 O1         -0.6828   -2.5436    1.3069 O.2       1 <0>        -0.5065
      8 N1         -2.5716   -2.7250    0.1573 N.am      1 <0>        -0.6722
      9 C6         -2.5002   -4.1224    0.1732 C.ar      1 <0>         0.2095
     10 C7         -1.2669   -4.7552    0.2608 C.ar      1 <0>        -0.1515
     11 C8         -1.1998   -6.1344    0.2763 C.ar      1 <0>        -0.0039
     12 C9         -2.3589   -6.8855    0.2042 C.ar      1 <0>        -0.6945
     13 C10        -3.5880   -6.2585    0.1164 C.ar      1 <0>         0.0054
     14 C11        -3.6624   -4.8792    0.1072 C.ar      1 <0>        -0.1408
     15 C12        -5.0030   -4.1966    0.0188 C.3       1 <0>        -0.1173
     16 S1         -2.2689   -8.6451    0.2236 S.o2      1 <0>         2.7042
     17 O2         -3.4521   -9.1192   -0.4043 O.2       1 <0>        -0.9643
     18 O3         -0.9703   -8.9904   -0.2387 O.2       1 <0>        -0.9611
     19 N2         -2.3498   -9.1220    1.8074 N.pl3     1 <0>        -1.2486
     20 H2          0.4214    2.0336    1.7774 H         1 <0>         0.0605
     21 H3         -0.4735    1.9680    0.2402 H         1 <0>         0.0586
     22 H4         -1.3563    1.9427    1.7856 H         1 <0>         0.0555
     23 H5          0.5327   -0.2333    0.7788 H         1 <0>         0.0712
     24 H6         -0.3501   -0.2586    2.3243 H         1 <0>         0.0724
     25 H7         -2.4346   -0.5186   -1.4014 H         1 <0>         0.0596
     26 H8         -1.5723    0.9825   -0.9875 H         1 <0>         0.0775
     27 H9         -0.6554   -0.4983   -1.3544 H         1 <0>         0.0642
     28 H10        -3.3324   -2.2829   -0.2509 H         1 <0>         0.4156
     29 H11        -0.3614   -4.1693    0.3165 H         1 <0>         0.1558
     30 H12        -0.2411   -6.6271    0.3444 H         1 <0>         0.1461
     31 H13        -4.4913   -6.8478    0.0599 H         1 <0>         0.1465
     32 H14        -5.2627   -4.0401   -1.0282 H         1 <0>         0.0764
     33 H15        -5.7607   -4.8215    0.4916 H         1 <0>         0.0784
     34 H16        -4.9553   -3.2346    0.5291 H         1 <0>         0.0651
     35 H17        -2.7422   -9.9791    2.0363 H         1 <0>         0.4215
     36 H18        -2.0049   -8.5443    2.5061 H         1 <0>         0.4175
@<TRIPOS>BOND
     1    1    2 1
     2    1   20 1
     3    1   21 1
     4    1   22 1
     5    2    3 1
     6    2   23 1
     7    2   24 1
     8    3    4 1
     9    3    5 1
    10    3    6 1
    11    5   25 1
    12    5   26 1
    13    5   27 1
    14    6    7 2
    15    6    8 am
    16    8    9 1
    17    8   28 1
    18    9   14 ar
    19    9   10 ar
    20   10   11 ar
    21   10   29 1
    22   11   12 ar
    23   11   30 1
    24   12   13 ar
    25   12   16 1
    26   13   14 ar
    27   13   31 1
    28   14   15 1
    29   15   32 1
    30   15   33 1
    31   15   34 1
    32   16   17 2
    33   16   18 2
    34   16   19 1
    35   19   35 1
    36   19   36 1
@<TRIPOS>MOLECULE
ZINC44869558
   43    43     0     0     0
SMALL
USER_CHARGES

@<TRIPOS>ATOM
      1 C1         -0.2097    1.5727    0.3000 C.3       1 <0>        -0.1534
      2 C2         -0.0592    0.0567    0.1587 C.3       1 <0>        -0.1181
      3 C3          0.6400   -0.5041    1.3987 C.3       1 <0>        -0.1024
      4 H1          1.5871    0.0143    1.5481 H         1 <0>         0.0738
      5 C4         -0.2530   -0.3001    2.6247 C.3       1 <0>        -0.1161
      6 C5          0.4594   -0.8312    3.8708 C.3       1 <0>        -0.1410
      7 C6          0.7182   -2.3320    3.7055 C.3       1 <0>         0.0985
      8 N1          1.4525   -2.5500    2.4517 N.am      1 <0>        -0.6104
      9 C7          0.9015   -2.0011    1.2050 C.3       1 <0>         0.1158
     10 C8          2.6101   -3.2401    2.4449 C.2       1 <0>         0.5283
     11 O1          3.1634   -3.4859    1.3940 O.2       1 <0>        -0.5153
     12 C9          3.2169   -3.7064    3.7431 C.3       1 <0>        -0.0462
     13 H2          2.4254   -3.8840    4.4711 H         1 <0>         0.1126
     14 C10         3.9927   -5.0038    3.5066 C.3       1 <0>        -0.0700
     15 C11         4.5949   -5.4861    4.8278 C.3       1 <0>        -0.1487
     16 C12         3.0446   -6.0721    2.9581 C.3       1 <0>        -0.1527
     17 C13         4.1541   -2.6493    4.2678 C.2       1 <0>         0.3744
     18 N2          5.4177   -2.7200    4.0085 N.2       1 <0>        -0.3957
     19 O2          6.2983   -1.7268    4.5015 O.3       1 <0>        -0.4254
     20 N3          3.6635   -1.6080    5.0239 N.pl3     1 <0>        -0.8716
     21 H3          0.7757    2.0280    0.3986 H         1 <0>         0.0534
     22 H4         -0.7078    1.9723   -0.5834 H         1 <0>         0.0558
     23 H5         -0.8042    1.7979    1.1854 H         1 <0>         0.0566
     24 H6         -1.0446   -0.3986    0.0601 H         1 <0>         0.0652
     25 H7          0.5353   -0.1684   -0.7267 H         1 <0>         0.0654
     26 H8         -0.4603    0.7626    2.7502 H         1 <0>         0.0715
     27 H9         -1.1902   -0.8388    2.4850 H         1 <0>         0.0671
     28 H10         1.4084   -0.3101    3.9971 H         1 <0>         0.0688
     29 H11        -0.1672   -0.6644    4.7469 H         1 <0>         0.0808
     30 H12         1.3119   -2.6950    4.5444 H         1 <0>         0.0802
     31 H13        -0.2320   -2.8649    3.6698 H         1 <0>         0.0786
     32 H14        -0.0335   -2.5074    0.9652 H         1 <0>         0.0703
     33 H15         1.6159   -2.1453    0.3945 H         1 <0>         0.0935
     34 H16         4.7917   -4.8234    2.7875 H         1 <0>         0.0982
     35 H17         3.7958   -5.6665    5.5469 H         1 <0>         0.0509
     36 H18         5.1475   -6.4104    4.6593 H         1 <0>         0.0624
     37 H19         5.2703   -4.7250    5.2185 H         1 <0>         0.0636
     38 H20         2.5703   -5.7044    2.0482 H         1 <0>         0.0600
     39 H21         3.6084   -6.9776    2.7336 H         1 <0>         0.0647
     40 H22         2.2796   -6.2954    3.7018 H         1 <0>         0.0532
     41 H23         7.2234   -1.8644    4.2561 H         1 <0>         0.4020
     42 H24         2.7148   -1.5549    5.2186 H         1 <0>         0.3924
     43 H25         4.2668   -0.9276    5.3616 H         1 <0>         0.4093
@<TRIPOS>BOND
     1    1    2 1
     2    1   21 1
     3    1   22 1
     4    1   23 1
     5    2    3 1
     6    2   24 1
     7    2   25 1
     8    3    4 1
     9    3    9 1
    10    3    5 1
    11    5    6 1
    12    5   26 1
    13    5   27 1
    14    6    7 1
    15    6   28 1
    16    6   29 1
    17    7    8 1
    18    7   30 1
    19    7   31 1
    20    8    9 1
    21    8   10 am
    22    9   32 1
    23    9   33 1
    24   10   11 2
    25   10   12 1
    26   12   13 1
    27   12   14 1
    28   12   17 1
    29   14   15 1
    30   14   16 1
    31   14   34 1
    32   15   35 1
    33   15   36 1
    34   15   37 1
    35   16   38 1
    36   16   39 1
    37   16   40 1
    38   17   18 2
    39   17   20 1
    40   18   19 1
    41   19   41 1
    42   20   42 1
    43   20   43 1
@<TRIPOS>MOLECULE
ZINC49033640
   32    33     0     0     0
SMALL
USER_CHARGES

@<TRIPOS>ATOM
      1 C1         -0.0187    1.5258    0.0104 C.3       1 <0>        -0.1610
      2 C2          0.0021   -0.0041    0.0020 C.3       1 <0>         0.1888
      3 H1          0.5123   -0.3556   -0.8948 H         1 <0>         0.1025
      4 C3         -1.4117   -0.5257    0.0127 C.ar      1 <0>        -0.0847
      5 C4         -2.1212   -0.5697    1.2007 C.ar      1 <0>        -0.1035
      6 C5         -3.4173   -1.0461    1.2206 C.ar      1 <0>        -0.0974
      7 C6         -4.0105   -1.4821    0.0456 C.ar      1 <0>         0.0928
      8 C7         -3.2950   -1.4377   -1.1526 C.ar      1 <0>         0.0956
      9 C8         -1.9961   -0.9525   -1.1636 C.ar      1 <0>        -0.0895
     10 N1         -4.1391   -1.9320   -2.1441 N.am      1 <0>        -0.6414
     11 H2         -3.9181   -2.0233   -3.0842 H         1 <0>         0.4378
     12 C9         -5.3140   -2.2619   -1.5753 C.2       1 <0>         0.6845
     13 O1         -6.2725   -2.7250   -2.1648 O.2       1 <0>        -0.5502
     14 N2         -5.2672   -2.0020   -0.2551 N.am      1 <0>        -0.6418
     15 H3         -5.9862   -2.1514    0.3787 H         1 <0>         0.4374
     16 N3          0.7106   -0.4894    1.1889 N.am      1 <0>        -0.7192
     17 C10         2.0538   -0.5998    1.1737 C.2       1 <0>         0.5205
     18 O2          2.6758   -0.2974    0.1774 O.2       1 <0>        -0.5134
     19 C11         2.7826   -1.0990    2.3946 C.3       1 <0>        -0.1978
     20 C12         4.2865   -1.1286    2.1142 C.3       1 <0>         0.4721
     21 F1          4.7281    0.1618    1.8025 F         1 <0>        -0.1725
     22 F2          4.9631   -1.5920    3.2476 F         1 <0>        -0.1809
     23 F3          4.5432   -1.9825    1.0362 F         1 <0>        -0.1726
     24 H4          1.0039    1.9031    0.0027 H         1 <0>         0.0682
     25 H5         -0.5459    1.8868   -0.8726 H         1 <0>         0.0720
     26 H6         -0.5289    1.8773    0.9072 H         1 <0>         0.0623
     27 H7         -1.6589   -0.2305    2.1159 H         1 <0>         0.1333
     28 H8         -3.9675   -1.0793    2.1494 H         1 <0>         0.1363
     29 H9         -1.4411   -0.9125   -2.0892 H         1 <0>         0.1368
     30 H10         0.2131   -0.7312    1.9857 H         1 <0>         0.4035
     31 H11         2.5826   -0.4337    3.2345 H         1 <0>         0.1409
     32 H12         2.4385   -2.1044    2.6374 H         1 <0>         0.1407
@<TRIPOS>BOND
     1    1    2 1
     2    1   24 1
     3    1   25 1
     4    1   26 1
     5    2    3 1
     6    2    4 1
     7    2   16 1
     8    4    9 ar
     9    4    5 ar
    10    5    6 ar
    11    5   27 1
    12    6    7 ar
    13    6   28 1
    14    7   14 1
    15    7    8 ar
    16    8    9 ar
    17    8   10 1
    18    9   29 1
    19   10   11 1
    20   10   12 am
    21   12   13 2
    22   12   14 am
    23   14   15 1
    24   16   17 am
    25   16   30 1
    26   17   18 2
    27   17   19 1
    28   19   20 1
    29   19   31 1
    30   19   32 1
    31   20   21 1
    32   20   22 1
    33   20   23 1
@<TRIPOS>MOLECULE
ZINC52840952
   34    35     0     0     0
SMALL
USER_CHARGES

@<TRIPOS>ATOM
      1 C1         -0.0184    1.5028    0.0103 C.3       1 <0>        -0.0748
      2 C2          0.0021   -0.0041    0.0020 C.2       1 <0>        -0.1275
      3 C3         -1.0392   -0.8719    0.0017 C.2       1 <0>        -0.1666
      4 C4         -0.7802   -2.2296   -0.0075 C.2       1 <0>        -0.1302
      5 C5          0.5074   -2.6532   -0.0160 C.2       1 <0>        -0.1708
      6 S1          1.4039   -1.1093   -0.0179 S.3       1 <0>         0.0364
      7 C6          1.0430   -4.0617   -0.0269 C.3       1 <0>         0.2375
      8 H1          0.2679   -4.7425   -0.3788 H         1 <0>         0.1045
      9 C7          1.4651   -4.4578    1.3894 C.3       1 <0>        -0.1683
     10 N1          2.2014   -4.1368   -0.9206 N.pl3     1 <0>        -0.7314
     11 C8          2.5524   -5.3570   -1.5108 C.ar      1 <0>         0.2053
     12 C9          1.8015   -6.4944   -1.2554 C.ar      1 <0>        -0.1633
     13 C10         2.1496   -7.6982   -1.8397 C.ar      1 <0>        -0.0504
     14 C11         3.2458   -7.7725   -2.6789 C.ar      1 <0>        -0.0588
     15 C12         4.0004   -6.6434   -2.9388 C.ar      1 <0>        -0.0994
     16 C13         3.6548   -5.4307   -2.3620 C.ar      1 <0>         0.1562
     17 N2          4.4139   -4.2848   -2.6286 N.pl3     1 <0>        -0.8745
     18 N3          3.6129   -9.0646   -3.3006 N.pl3     1 <0>         0.0430
     19 O1          2.9545  -10.0530   -3.0742 O.2       1 <0>        -0.1694
     20 O2          4.5711   -9.1315   -4.0347 O.3       1 <0>        -0.1723
     21 H2          1.0042    1.8801    0.0026 H         1 <0>         0.0739
     22 H3         -0.5455    1.8639   -0.8728 H         1 <0>         0.0838
     23 H4         -0.5286    1.8543    0.9071 H         1 <0>         0.0843
     24 H5         -2.0560   -0.5079    0.0090 H         1 <0>         0.1370
     25 H6         -1.5916   -2.9424   -0.0076 H         1 <0>         0.1359
     26 H7          0.6032   -4.4019    2.0544 H         1 <0>         0.0743
     27 H8          1.8525   -5.4765    1.3816 H         1 <0>         0.0715
     28 H9          2.2402   -3.7770    1.7413 H         1 <0>         0.0640
     29 H10         2.7253   -3.3411   -1.1034 H         1 <0>         0.3991
     30 H11         0.9450   -6.4400   -0.5998 H         1 <0>         0.1461
     31 H12         1.5637   -8.5831   -1.6397 H         1 <0>         0.1509
     32 H13         4.8565   -6.7052   -3.5943 H         1 <0>         0.1507
     33 H14         4.1733   -3.4380   -2.2212 H         1 <0>         0.3963
     34 H15         5.1803   -4.3376   -3.2208 H         1 <0>         0.4069
@<TRIPOS>BOND
     1    1    2 1
     2    1   21 1
     3    1   22 1
     4    1   23 1
     5    2    6 1
     6    2    3 2
     7    3    4 1
     8    3   24 1
     9    4    5 2
    10    4   25 1
    11    5    6 1
    12    5    7 1
    13    7    8 1
    14    7    9 1
    15    7   10 1
    16    9   26 1
    17    9   27 1
    18    9   28 1
    19   10   11 1
    20   10   29 1
    21   11   16 ar
    22   11   12 ar
    23   12   13 ar
    24   12   30 1
    25   13   14 ar
    26   13   31 1
    27   14   15 ar
    28   14   18 1
    29   15   16 ar
    30   15   32 1
    31   16   17 1
    32   17   33 1
    33   17   34 1
    34   18   19 2
    35   18   20 1
@<TRIPOS>MOLECULE
ZINC66641476
   49    49     0     0     0
SMALL
USER_CHARGES

@<TRIPOS>ATOM
      1 C1         -0.0187    1.5258    0.0104 C.3       1 <0>        -0.1478
      2 C2          0.0021   -0.0041    0.0020 C.3       1 <0>        -0.0915
      3 H1         -1.0205   -0.3814    0.0098 H         1 <0>         0.0728
      4 C3          0.7182   -0.4975   -1.2568 C.3       1 <0>        -0.1147
      5 C4          0.7390   -2.0273   -1.2652 C.3       1 <0>        -0.0731
      6 H2         -0.2836   -2.4046   -1.2575 H         1 <0>         0.0847
      7 C5          1.4790   -2.5342   -0.0257 C.3       1 <0>        -0.1031
      8 C6          0.7628   -2.0407    1.2331 C.3       1 <0>        -0.0631
      9 C7          0.7421   -0.5109    1.2415 C.3       1 <0>        -0.1039
     10 C8          1.5028   -2.5476    2.4727 C.3       1 <0>        -0.1425
     11 C9         -0.6726   -2.5703    1.2440 C.3       1 <0>        -0.1475
     12 C10         1.4551   -2.5207   -2.5240 C.3       1 <0>        -0.1282
     13 C11         0.6598   -2.1261   -3.7417 C.2       1 <0>         0.5147
     14 O1         -0.3777   -1.5108   -3.6152 O.2       1 <0>        -0.5224
     15 N1          1.1014   -2.4570   -4.9713 N.am      1 <0>        -0.5343
     16 N2          0.3620   -2.0901   -6.1034 N.am      1 <0>        -0.5341
     17 C12         0.8036   -2.4209   -7.3330 C.2       1 <0>         0.7125
     18 O2          0.1620   -2.1025   -8.3155 O.2       1 <0>        -0.5691
     19 N3          1.9565   -3.1047   -7.4736 N.am      1 <0>        -0.7398
     20 C13         2.4365   -3.4643   -8.8102 C.3       1 <0>         0.1521
     21 C14         3.2288   -2.2954   -9.3992 C.3       1 <0>        -0.1666
     22 C15         3.3398   -4.6954   -8.7135 C.3       1 <0>        -0.1624
     23 H3          1.0039    1.9031    0.0027 H         1 <0>         0.0520
     24 H4         -0.5459    1.8868   -0.8726 H         1 <0>         0.0542
     25 H5         -0.5289    1.8773    0.9072 H         1 <0>         0.0530
     26 H6          0.1910   -0.1364   -2.1398 H         1 <0>         0.0800
     27 H7          1.7408   -0.1202   -1.2645 H         1 <0>         0.0555
     28 H8          1.4937   -3.6240   -0.0317 H         1 <0>         0.0632
     29 H9          2.5015   -2.1569   -0.0334 H         1 <0>         0.0639
     30 H10         1.7647   -0.1336    1.2338 H         1 <0>         0.0608
     31 H11         0.2319   -0.1594    2.1383 H         1 <0>         0.0606
     32 H12         2.5254   -2.1703    2.4649 H         1 <0>         0.0539
     33 H13         0.9926   -2.1961    3.3695 H         1 <0>         0.0549
     34 H14         1.5176   -3.6375    2.4667 H         1 <0>         0.0544
     35 H15        -0.6578   -3.6602    1.2380 H         1 <0>         0.0527
     36 H16        -1.1828   -2.2188    2.1408 H         1 <0>         0.0533
     37 H17        -1.1998   -2.2092    0.3609 H         1 <0>         0.0626
     38 H18         2.4472   -2.0723   -2.5770 H         1 <0>         0.0998
     39 H19         1.5485   -3.6061   -2.4871 H         1 <0>         0.1003
     40 H20         1.9311   -2.9491   -5.0725 H         1 <0>         0.4180
     41 H21        -0.4677   -1.5980   -6.0022 H         1 <0>         0.4432
     42 H22         2.4684   -3.3587   -6.6898 H         1 <0>         0.3898
     43 H23         1.5857   -3.6876   -9.4539 H         1 <0>         0.0922
     44 H24         3.5860   -2.5630  -10.3936 H         1 <0>         0.0689
     45 H25         2.5853   -1.4184   -9.4680 H         1 <0>         0.0622
     46 H26         4.0796   -2.0722   -8.7554 H         1 <0>         0.0564
     47 H27         2.7754   -5.5282   -8.2939 H         1 <0>         0.0628
     48 H28         3.6970   -4.9630   -9.7080 H         1 <0>         0.0774
     49 H29         4.1906   -4.4722   -8.0698 H         1 <0>         0.0614
@<TRIPOS>BOND
     1    1    2 1
     2    1   23 1
     3    1   24 1
     4    1   25 1
     5    2    3 1
     6    2    9 1
     7    2    4 1
     8    4    5 1
     9    4   26 1
    10    4   27 1
    11    5    6 1
    12    5    7 1
    13    5   12 1
    14    7    8 1
    15    7   28 1
    16    7   29 1
    17    8    9 1
    18    8   10 1
    19    8   11 1
    20    9   30 1
    21    9   31 1
    22   10   32 1
    23   10   33 1
    24   10   34 1
    25   11   35 1
    26   11   36 1
    27   11   37 1
    28   12   13 1
    29   12   38 1
    30   12   39 1
    31   13   14 2
    32   13   15 am
    33   15   16 1
    34   15   40 1
    35   16   17 am
    36   16   41 1
    37   17   18 2
    38   17   19 am
    39   19   20 1
    40   19   42 1
    41   20   21 1
    42   20   22 1
    43   20   43 1
    44   21   44 1
    45   21   45 1
    46   21   46 1
    47   22   47 1
    48   22   48 1
    49   22   49 1
@<TRIPOS>MOLECULE
ZINC37135670
   39    40     0     0     0
SMALL
USER_CHARGES

@<TRIPOS>ATOM
      1 C1          0.1177    1.5881    0.0044 C.3       1 <0>        -0.0759
      2 C2          0.0585    0.0860    0.1100 C.2       1 <0>        -0.0089
      3 C3         -1.0548   -0.6464    0.2929 C.2       1 <0>        -0.2122
      4 C4         -0.6520   -2.0011    0.3328 C.2       1 <0>        -0.1919
      5 C5          0.6834   -2.0154    0.1718 C.2       1 <0>        -0.0256
      6 O1          1.1076   -0.7488    0.0315 O.3       1 <0>        -0.1718
      7 C6          1.5550   -3.2445    0.1474 C.3       1 <0>         0.2386
      8 H1          1.0282   -4.0730    0.6209 H         1 <0>         0.1059
      9 C7          1.8814   -3.6095   -1.3021 C.3       1 <0>        -0.1706
     10 N1          2.7978   -2.9764    0.8752 N.pl3     1 <0>        -0.7443
     11 C8          3.5172   -4.0330    1.4443 C.ar      1 <0>         0.2035
     12 C9          3.0560   -5.3366    1.3144 C.ar      1 <0>        -0.1790
     13 C10         3.7660   -6.3791    1.8761 C.ar      1 <0>        -0.0682
     14 C11         4.9408   -6.1243    2.5708 C.ar      1 <0>         0.1054
     15 C12         5.4020   -4.8213    2.7007 C.ar      1 <0>        -0.0962
     16 C13         4.6953   -3.7790    2.1343 C.ar      1 <0>        -0.1730
     17 N2          5.6613   -7.1830    3.1414 N.am      1 <0>        -0.6840
     18 C14         5.6783   -8.3885    2.5390 C.2       1 <0>         0.7000
     19 O2          5.1505   -8.5331    1.4532 O.2       1 <0>        -0.5737
     20 N3          6.2804   -9.4338    3.1401 N.am      1 <0>        -0.7480
     21 C15         6.2989  -10.7442    2.4853 C.3       1 <0>         0.1052
     22 H2          1.1508    1.9013   -0.1465 H         1 <0>         0.0759
     23 H3         -0.4887    1.9173   -0.8394 H         1 <0>         0.0866
     24 H4         -0.2662    2.0323    0.9228 H         1 <0>         0.0865
     25 H5         -2.0629   -0.2716    0.3912 H         1 <0>         0.1497
     26 H6         -1.2933   -2.8596    0.4671 H         1 <0>         0.1500
     27 H7          0.9568   -3.8090   -1.8436 H         1 <0>         0.0695
     28 H8          2.4083   -2.7810   -1.7756 H         1 <0>         0.0631
     29 H9          2.5119   -4.4985   -1.3198 H         1 <0>         0.0727
     30 H10         3.1221   -2.0664    0.9626 H         1 <0>         0.4032
     31 H11         2.1420   -5.5348    0.7744 H         1 <0>         0.1242
     32 H12         3.4072   -7.3928    1.7754 H         1 <0>         0.1346
     33 H13         6.3159   -4.6233    3.2411 H         1 <0>         0.1242
     34 H14         5.0564   -2.7658    2.2317 H         1 <0>         0.1239
     35 H15         6.1475   -7.0479    3.9698 H         1 <0>         0.4042
     36 H16         6.7014   -9.3185    4.0063 H         1 <0>         0.3988
     37 H17         5.2760  -11.0854    2.3262 H         1 <0>         0.0602
     38 H18         6.8085  -10.6634    1.5251 H         1 <0>         0.0600
     39 H19         6.8261  -11.4588    3.1174 H         1 <0>         0.0774
@<TRIPOS>BOND
     1    1    2 1
     2    1   22 1
     3    1   23 1
     4    1   24 1
     5    2    6 1
     6    2    3 2
     7    3    4 1
     8    3   25 1
     9    4    5 2
    10    4   26 1
    11    5    6 1
    12    5    7 1
    13    7    8 1
    14    7    9 1
    15    7   10 1
    16    9   27 1
    17    9   28 1
    18    9   29 1
    19   10   11 1
    20   10   30 1
    21   11   16 ar
    22   11   12 ar
    23   12   13 ar
    24   12   31 1
    25   13   14 ar
    26   13   32 1
    27   14   15 ar
    28   14   17 1
    29   15   16 ar
    30   15   33 1
    31   16   34 1
    32   17   18 am
    33   17   35 1
    34   18   19 2
    35   18   20 am
    36   20   21 1
    37   20   36 1
    38   21   37 1
    39   21   38 1
    40   21   39 1
@<TRIPOS>MOLECULE
ZINC44865020
   43    43     0     0     0
SMALL
USER_CHARGES

@<TRIPOS>ATOM
      1 C1          0.5189    1.8399   -1.1336 C.3       1 <0>        -0.1489
      2 C2          0.1778    0.3486   -1.1135 C.3       1 <0>        -0.1268
      3 C3          1.4117   -0.4622   -1.5149 C.3       1 <0>        -0.0919
      4 C4          1.0706   -1.9536   -1.4948 C.3       1 <0>        -0.1073
      5 H1          0.6734   -2.2224   -0.5160 H         1 <0>         0.1653
      6 C5          0.0389   -2.2472   -2.5534 C.2       1 <0>         0.3739
      7 N1         -0.2845   -1.3363   -3.4104 N.2       1 <0>        -0.4012
      8 O1         -1.2538   -1.6122   -4.4051 O.3       1 <0>        -0.4276
      9 N2         -0.5590   -3.4867   -2.6071 N.pl3     1 <0>        -0.8826
     10 C6          2.3153   -2.7573   -1.7699 C.2       1 <0>         0.5375
     11 O2          3.3774   -2.1943   -1.9309 O.2       1 <0>        -0.5003
     12 N3          2.2483   -4.1018   -1.8368 N.am      1 <0>        -0.6220
     13 C7          1.2351   -4.8399   -1.0704 C.3       1 <0>         0.1353
     14 H2          0.5330   -5.3148   -1.7557 H         1 <0>         0.0811
     15 C8          1.9365   -5.9112   -0.2297 C.3       1 <0>        -0.1287
     16 C9          2.7965   -6.7884   -1.1425 C.3       1 <0>        -0.1220
     17 C10         3.8663   -5.9283   -1.8192 C.3       1 <0>        -0.1323
     18 C11         3.1832   -4.8567   -2.6823 C.3       1 <0>         0.1483
     19 H3          2.6366   -5.3330   -3.4963 H         1 <0>         0.0727
     20 C12         4.2377   -3.9076   -3.2550 C.3       1 <0>        -0.1488
     21 C13         0.4825   -3.8746   -0.1525 C.3       1 <0>        -0.2224
     22 H4          1.3278    2.0371   -0.4301 H         1 <0>         0.0521
     23 H5          0.8320    2.1276   -2.1372 H         1 <0>         0.0553
     24 H6         -0.3602    2.4175   -0.8477 H         1 <0>         0.0524
     25 H7         -0.1353    0.0609   -0.1099 H         1 <0>         0.0541
     26 H8         -0.6311    0.1514   -1.8170 H         1 <0>         0.0765
     27 H9          1.7247   -0.1746   -2.5185 H         1 <0>         0.0788
     28 H10         2.2206   -0.2650   -0.8114 H         1 <0>         0.0756
     29 H11        -1.4293   -0.8702   -4.9998 H         1 <0>         0.4004
     30 H12        -0.3280   -4.1654   -1.9537 H         1 <0>         0.4025
     31 H13        -1.2112   -3.6810   -3.2984 H         1 <0>         0.4019
     32 H14         2.5703   -5.4313    0.5161 H         1 <0>         0.0731
     33 H15         1.1897   -6.5284    0.2698 H         1 <0>         0.0799
     34 H16         3.2774   -7.5668   -0.5503 H         1 <0>         0.0702
     35 H17         2.1658   -7.2485   -1.9032 H         1 <0>         0.0648
     36 H18         4.4819   -5.4482   -1.0584 H         1 <0>         0.0707
     37 H19         4.4930   -6.5576   -2.4511 H         1 <0>         0.0752
     38 H20         4.8424   -3.5038   -2.4430 H         1 <0>         0.0796
     39 H21         4.8782   -4.4522   -3.9489 H         1 <0>         0.0549
     40 H22         3.7439   -3.0907   -3.7812 H         1 <0>         0.0612
     41 H23        -0.2514   -3.3172   -0.7346 H         1 <0>         0.0979
     42 H24        -0.0263   -4.4387    0.6292 H         1 <0>         0.0864
     43 H25         1.1890   -3.1801    0.3021 H         1 <0>         0.0854
@<TRIPOS>BOND
     1    1    2 1
     2    1   22 1
     3    1   23 1
     4    1   24 1
     5    2    3 1
     6    2   25 1
     7    2   26 1
     8    3    4 1
     9    3   27 1
    10    3   28 1
    11    4    5 1
    12    4    6 1
    13    4   10 1
    14    6    7 2
    15    6    9 1
    16    7    8 1
    17    8   29 1
    18    9   30 1
    19    9   31 1
    20   10   11 2
    21   10   12 am
    22   12   18 1
    23   12   13 1
    24   13   14 1
    25   13   15 1
    26   13   21 1
    27   15   16 1
    28   15   32 1
    29   15   33 1
    30   16   17 1
    31   16   34 1
    32   16   35 1
    33   17   18 1
    34   17   36 1
    35   17   37 1
    36   18   19 1
    37   18   20 1
    38   20   38 1
    39   20   39 1
    40   20   40 1
    41   21   41 1
    42   21   42 1
    43   21   43 1
@<TRIPOS>MOLECULE
ZINC48953722
   44    46     0     0     0
SMALL
USER_CHARGES

@<TRIPOS>ATOM
      1 C1         -0.0187    1.5258    0.0104 C.3       1 <0>        -0.1725
      2 C2          0.0021   -0.0041    0.0020 C.3       1 <0>         0.1426
      3 N1          0.6878   -0.4765   -1.2033 N.pl3     1 <0>        -0.6612
      4 C3          2.1353   -0.7012   -1.1821 C.3       1 <0>         0.1470
      5 C4          2.4212   -2.1448   -0.7635 C.3       1 <0>         0.0513
      6 H1          1.9529   -2.8399   -1.4603 H         1 <0>         0.0761
      7 C5          3.9493   -2.3939   -0.7007 C.3       1 <0>        -0.1519
      8 C6          4.0142   -3.5755    0.3051 C.3       1 <0>        -0.1557
      9 C7          2.8470   -3.2547    1.2632 C.3       1 <0>         0.0494
     10 O1          1.9455   -2.3804    0.5713 O.3       1 <0>        -0.3751
     11 C8         -0.0402   -0.7133   -2.3755 C.ar      1 <0>         0.1172
     12 C9         -0.2151    0.3032   -3.3014 C.ar      1 <0>        -0.1051
     13 C10        -0.9368    0.0655   -4.4632 C.ar      1 <0>         0.1001
     14 C11        -1.4830   -1.1896   -4.6976 C.ar      1 <0>        -0.0739
     15 C12        -1.3105   -2.2045   -3.7755 C.ar      1 <0>        -0.1630
     16 C13        -0.5859   -1.9740   -2.6162 C.ar      1 <0>         0.1984
     17 N2         -0.4061   -3.0061   -1.6841 N.pl3     1 <0>        -0.8751
     18 C14        -2.2644   -1.4424   -5.9611 C.3       1 <0>        -0.0780
     19 C15        -3.0210   -0.1740   -6.3569 C.3       1 <0>        -0.1377
     20 C16        -2.0911    1.0088   -6.3234 C.2       1 <0>         0.5195
     21 O2         -2.2231    1.8985   -7.1372 O.2       1 <0>        -0.5355
     22 N3         -1.1149    1.0907   -5.4009 N.am      1 <0>        -0.6599
     23 H2          1.0039    1.9031    0.0027 H         1 <0>         0.0520
     24 H3         -0.5459    1.8868   -0.8726 H         1 <0>         0.0524
     25 H4         -0.5289    1.8773    0.9072 H         1 <0>         0.0566
     26 H5          0.5293   -0.3651    0.8851 H         1 <0>         0.0742
     27 H6         -1.0205   -0.3814    0.0098 H         1 <0>         0.0581
     28 H7          2.5453   -0.5232   -2.1762 H         1 <0>         0.0759
     29 H8          2.5986   -0.0180   -0.4703 H         1 <0>         0.0725
     30 H9          4.3401   -2.6859   -1.6755 H         1 <0>         0.0822
     31 H10         4.4742   -1.5201   -0.3147 H         1 <0>         0.0799
     32 H11         3.8497   -4.5261   -0.2020 H         1 <0>         0.0752
     33 H12         4.9646   -3.5787    0.8389 H         1 <0>         0.0819
     34 H13         2.3303   -4.1744    1.5375 H         1 <0>         0.0660
     35 H14         3.2277   -2.7621    2.1580 H         1 <0>         0.0687
     36 H15         0.2095    1.2794   -3.1191 H         1 <0>         0.1266
     37 H16        -1.7371   -3.1794   -3.9602 H         1 <0>         0.1272
     38 H17         0.0979   -2.8434   -0.8715 H         1 <0>         0.4077
     39 H18        -0.7858   -3.8828   -1.8520 H         1 <0>         0.3935
     40 H19        -1.5796   -1.7215   -6.7619 H         1 <0>         0.0836
     41 H20        -2.9751   -2.2515   -5.7928 H         1 <0>         0.0906
     42 H21        -3.4219   -0.2909   -7.3637 H         1 <0>         0.1077
     43 H22        -3.8416   -0.0092   -5.6587 H         1 <0>         0.1028
     44 H23        -0.5306    1.8648   -5.3852 H         1 <0>         0.4080
@<TRIPOS>BOND
     1    1    2 1
     2    1   23 1
     3    1   24 1
     4    1   25 1
     5    2    3 1
     6    2   26 1
     7    2   27 1
     8    3    4 1
     9    3   11 1
    10    4    5 1
    11    4   28 1
    12    4   29 1
    13    5    6 1
    14    5   10 1
    15    5    7 1
    16    7    8 1
    17    7   30 1
    18    7   31 1
    19    8    9 1
    20    8   32 1
    21    8   33 1
    22    9   10 1
    23    9   34 1
    24    9   35 1
    25   11   16 ar
    26   11   12 ar
    27   12   13 ar
    28   12   36 1
    29   13   22 1
    30   13   14 ar
    31   14   15 ar
    32   14   18 1
    33   15   16 ar
    34   15   37 1
    35   16   17 1
    36   17   38 1
    37   17   39 1
    38   18   19 1
    39   18   40 1
    40   18   41 1
    41   19   20 1
    42   19   42 1
    43   19   43 1
    44   20   21 2
    45   20   22 am
    46   22   44 1
@<TRIPOS>MOLECULE
ZINC52154586
   43    44     0     0     0
SMALL
USER_CHARGES

@<TRIPOS>ATOM
      1 C1         -0.0184    1.5028    0.0103 C.3       1 <0>        -0.1231
      2 C2          0.0021   -0.0041    0.0020 C.ar      1 <0>         0.0344
      3 C3          0.0062   -0.7071   -1.1913 C.ar      1 <0>        -0.2166
      4 C4          0.0255   -2.0889   -1.1655 C.ar      1 <0>         0.1916
      5 N1          0.0398   -2.7500   -0.0235 N.ar      1 <0>        -0.5437
      6 C5          0.0366   -2.1268    1.1419 C.ar      1 <0>         0.3692
      7 C6          0.0232   -0.7264    1.1980 C.ar      1 <0>        -0.1395
      8 C7          0.0256   -0.0255    2.5002 C.2       1 <0>         0.4353
      9 N2         -1.1004    0.2672    3.0837 N.2       1 <0>        -0.4098
     10 O1         -1.0981    0.9382    4.3306 O.3       1 <0>        -0.4265
     11 N3          1.2257    0.3193    3.0988 N.pl3     1 <0>        -0.8641
     12 O2          0.0517   -2.8465    2.2903 O.3       1 <0>        -0.2925
     13 C8          0.0705   -4.2698    2.1638 C.3       1 <0>         0.0750
     14 C9          0.0855   -4.9053    3.5554 C.3       1 <0>        -0.0869
     15 C10         1.3913   -4.5449    4.2666 C.3       1 <0>        -0.1121
     16 C11         1.4063   -5.1805    5.6583 C.3       1 <0>        -0.1200
     17 C12         1.3007   -6.7011    5.5257 C.3       1 <0>        -0.1215
     18 C13        -0.0051   -7.0615    4.8145 C.3       1 <0>        -0.1181
     19 C14        -0.0202   -6.4259    3.4228 C.3       1 <0>        -0.1110
     20 C15         0.0300   -2.8537   -2.4639 C.3       1 <0>        -0.1096
     21 H1          1.0042    1.8801    0.0026 H         1 <0>         0.0840
     22 H2         -0.5455    1.8639   -0.8728 H         1 <0>         0.0815
     23 H3         -0.5286    1.8543    0.9071 H         1 <0>         0.0768
     24 H4         -0.0060   -0.1801   -2.1339 H         1 <0>         0.1448
     25 H5         -1.9808    1.1123    4.6851 H         1 <0>         0.3997
     26 H6          2.0649    0.1012    2.6639 H         1 <0>         0.3958
     27 H7          1.2272    0.7790    3.9529 H         1 <0>         0.4079
     28 H8         -0.8176   -4.5983    1.6239 H         1 <0>         0.0686
     29 H9          0.9622   -4.5741    1.6157 H         1 <0>         0.0684
     30 H10        -0.7588   -4.5316    4.1347 H         1 <0>         0.0802
     31 H11         2.2357   -4.9187    3.6874 H         1 <0>         0.0610
     32 H12         1.4666   -3.4617    4.3611 H         1 <0>         0.0663
     33 H13         2.3366   -4.9238    6.1650 H         1 <0>         0.0620
     34 H14         0.5620   -4.8068    6.2375 H         1 <0>         0.0618
     35 H15         2.1450   -7.0748    4.9464 H         1 <0>         0.0617
     36 H16         1.3114   -7.1539    6.5171 H         1 <0>         0.0619
     37 H17        -0.0804   -8.1448    4.7200 H         1 <0>         0.0650
     38 H18        -0.8495   -6.6878    5.3937 H         1 <0>         0.0631
     39 H19        -0.9505   -6.6827    2.9161 H         1 <0>         0.0657
     40 H20         0.8242   -6.7997    2.8436 H         1 <0>         0.0660
     41 H21         1.0586   -3.0238   -2.7819 H         1 <0>         0.0849
     42 H22        -0.4699   -3.8120   -2.3229 H         1 <0>         0.0808
     43 H23        -0.4955   -2.2785   -3.2262 H         1 <0>         0.0817
@<TRIPOS>BOND
     1    1    2 1
     2    1   21 1
     3    1   22 1
     4    1   23 1
     5    2    7 ar
     6    2    3 ar
     7    3    4 ar
     8    3   24 1
     9    4    5 ar
    10    4   20 1
    11    5    6 ar
    12    6    7 ar
    13    6   12 1
    14    7    8 1
    15    8    9 2
    16    8   11 1
    17    9   10 1
    18   10   25 1
    19   11   26 1
    20   11   27 1
    21   12   13 1
    22   13   14 1
    23   13   28 1
    24   13   29 1
    25   14   19 1
    26   14   15 1
    27   14   30 1
    28   15   16 1
    29   15   31 1
    30   15   32 1
    31   16   17 1
    32   16   33 1
    33   16   34 1
    34   17   18 1
    35   17   35 1
    36   17   36 1
    37   18   19 1
    38   18   37 1
    39   18   38 1
    40   19   39 1
    41   19   40 1
    42   20   41 1
    43   20   42 1
    44   20   43 1
@<TRIPOS>MOLECULE
ZINC67172649
   33    34     0     0     0
SMALL
USER_CHARGES

@<TRIPOS>ATOM
      1 C1         -0.0187    1.5258    0.0104 C.3       1 <0>        -0.1551
      2 C2          0.0021   -0.0041    0.0020 C.3       1 <0>        -0.0935
      3 C3          0.7182   -0.4975   -1.2568 C.3       1 <0>        -0.1483
      4 C4          0.7421   -0.5109    1.2415 C.3       1 <0>        -0.1334
      5 C5         -0.0416   -0.1236    2.4973 C.3       1 <0>         0.0914
      6 N1          0.6670   -0.6089    3.6841 N.am      1 <0>        -0.5443
      7 C6          0.4107   -1.8444    4.1766 C.2       1 <0>         0.5989
      8 O1         -0.4105   -2.5721    3.6439 O.2       1 <0>        -0.5221
      9 C7          1.1092   -2.2627    5.3065 C.2       1 <0>        -0.3580
     10 C8          2.0594   -1.4362    5.9323 C.2       1 <0>         0.2122
     11 C9          2.6865   -1.9844    7.0601 C.2       1 <0>        -0.1647
     12 C10         2.3660   -3.2275    7.4787 C.2       1 <0>        -0.1215
     13 S1          1.1301   -3.7352    6.2948 S.3       1 <0>         0.1475
     14 N2          2.2527   -0.2026    5.3638 N.2       1 <0>        -0.5554
     15 C11         1.5961    0.1767    4.3017 C.2       1 <0>         0.6406
     16 N3          1.8474    1.4251    3.7857 N.pl3     1 <0>        -0.5534
     17 N4          2.7716    2.2365    4.3802 N.3       1 <0>        -0.5821
     18 H1          1.0039    1.9031    0.0027 H         1 <0>         0.0569
     19 H2         -0.5459    1.8868   -0.8726 H         1 <0>         0.0617
     20 H3         -0.5289    1.8773    0.9072 H         1 <0>         0.0525
     21 H4         -1.0205   -0.3814    0.0098 H         1 <0>         0.0771
     22 H5          1.7408   -0.1202   -1.2645 H         1 <0>         0.0556
     23 H6          0.7330   -1.5874   -1.2628 H         1 <0>         0.0571
     24 H7          0.1910   -0.1364   -2.1398 H         1 <0>         0.0590
     25 H8          0.8346   -1.5958    1.1912 H         1 <0>         0.0778
     26 H9          1.7350   -0.0630    1.2804 H         1 <0>         0.0696
     27 H10        -0.1341    0.9613    2.5476 H         1 <0>         0.0857
     28 H11        -1.0345   -0.5716    2.4584 H         1 <0>         0.1089
     29 H12         3.4285   -1.4107    7.5956 H         1 <0>         0.1481
     30 H13         2.7597   -3.7779    8.3204 H         1 <0>         0.2018
     31 H14         1.3685    1.7302    2.9992 H         1 <0>         0.4129
     32 H15         2.8472    3.1165    3.8923 H         1 <0>         0.3626
     33 H16         2.5526    2.3809    5.3545 H         1 <0>         0.3539
@<TRIPOS>BOND
     1    1    2 1
     2    1   18 1
     3    1   19 1
     4    1   20 1
     5    2    3 1
     6    2    4 1
     7    2   21 1
     8    3   22 1
     9    3   23 1
    10    3   24 1
    11    4    5 1
    12    4   25 1
    13    4   26 1
    14    5    6 1
    15    5   27 1
    16    5   28 1
    17    6   15 1
    18    6    7 am
    19    7    8 2
    20    7    9 1
    21    9   13 1
    22    9   10 2
    23   10   11 1
    24   10   14 1
    25   11   12 2
    26   11   29 1
    27   12   13 1
    28   12   30 1
    29   14   15 2
    30   15   16 1
    31   16   17 1
    32   16   31 1
    33   17   32 1
    34   17   33 1
@<TRIPOS>MOLECULE
ZINC35325929
   46    46     0     0     0
SMALL
USER_CHARGES

@<TRIPOS>ATOM
      1 C1         -0.0187    1.5257    0.0104 C.3       1 <0>        -0.1181
      2 C2          1.4170    2.0550   -0.0004 C.3       1 <0>        -0.1460
      3 C3          2.0034    1.9105   -1.4063 C.3       1 <0>        -0.1156
      4 C4          2.3703    0.4465   -1.6575 C.3       1 <0>        -0.1346
      5 C5          3.0768   -0.1217   -0.4253 C.3       1 <0>         0.1526
      6 C6          2.1914   -1.1869    0.2248 C.3       1 <0>        -0.1301
      7 C7          1.0555   -0.5062    0.9912 C.3       1 <0>        -0.1255
      8 C8          0.0021   -0.0041    0.0020 C.3       1 <0>        -0.1292
      9 N1          4.3503   -0.7241   -0.8271 N.am      1 <0>        -0.7381
     10 C9          5.3558   -0.8316    0.0639 C.2       1 <0>         0.6910
     11 O1          5.2060   -0.4288    1.2008 O.2       1 <0>        -0.5309
     12 N2          6.5274   -1.3858   -0.3058 N.am      1 <0>        -0.6957
     13 C10         7.5329   -1.4933    0.5853 C.2       1 <0>         0.5140
     14 O2          7.3835   -1.0915    1.7193 O.2       1 <0>        -0.4652
     15 C11         8.8430   -2.1130    0.1719 C.3       1 <0>        -0.1356
     16 C12         9.8050   -2.1131    1.3616 C.3       1 <0>        -0.1085
     17 C13        11.1350   -2.7422    0.9420 C.3       1 <0>        -0.0921
     18 C14        12.0970   -2.7423    2.1317 C.3       1 <0>        -0.1842
     19 C15        13.4070   -3.3620    1.7184 C.2       1 <0>         0.4883
     20 O3         13.5573   -3.7661    0.5779 O.co2     1 <0>        -0.7013
     21 O4         14.3166   -3.4592    2.5244 O.co2     1 <0>        -0.7083
     22 H1         -0.5288    1.8773    0.9073 H         1 <0>         0.0595
     23 H2         -0.5458    1.8868   -0.8727 H         1 <0>         0.0607
     24 H3          1.4189    3.1062    0.2877 H         1 <0>         0.0607
     25 H4          2.0201    1.4838    0.7053 H         1 <0>         0.0867
     26 H5          1.2664    2.2318   -2.1422 H         1 <0>         0.0657
     27 H6          2.8968    2.5289   -1.4927 H         1 <0>         0.0617
     28 H7          1.4640   -0.1266   -1.8531 H         1 <0>         0.0833
     29 H8          3.0343    0.3812   -2.5193 H         1 <0>         0.0681
     30 H9          3.2636    0.6805    0.2886 H         1 <0>         0.1007
     31 H10         1.7731   -1.8325   -0.5474 H         1 <0>         0.0646
     32 H11         2.7881   -1.7843    0.9141 H         1 <0>         0.0671
     33 H12         0.5994   -1.2214    1.6758 H         1 <0>         0.0621
     34 H13         1.4529    0.3361    1.5575 H         1 <0>         0.0762
     35 H14        -0.9782   -0.3822    0.2922 H         1 <0>         0.0582
     36 H15         0.2461   -0.3585   -0.9995 H         1 <0>         0.0716
     37 H16         4.4699   -1.0456   -1.7344 H         1 <0>         0.3954
     38 H17         6.6470   -1.7073   -1.2131 H         1 <0>         0.4086
     39 H18         8.6722   -3.1379   -0.1574 H         1 <0>         0.0995
     40 H19         9.2759   -1.5361   -0.6454 H         1 <0>         0.0996
     41 H20         9.9757   -1.0881    1.6909 H         1 <0>         0.0654
     42 H21         9.3720   -2.6899    2.1789 H         1 <0>         0.0654
     43 H22        10.9642   -3.7672    0.6127 H         1 <0>         0.0598
     44 H23        11.5679   -2.1654    0.1247 H         1 <0>         0.0599
     45 H24        12.2677   -1.7174    2.4610 H         1 <0>         0.0564
     46 H25        11.6641   -3.3192    2.9490 H         1 <0>         0.0563
@<TRIPOS>BOND
     1    1    8 1
     2    1    2 1
     3    1   22 1
     4    1   23 1
     5    2    3 1
     6    2   24 1
     7    2   25 1
     8    3    4 1
     9    3   26 1
    10    3   27 1
    11    4    5 1
    12    4   28 1
    13    4   29 1
    14    5    6 1
    15    5    9 1
    16    5   30 1
    17    6    7 1
    18    6   31 1
    19    6   32 1
    20    7    8 1
    21    7   33 1
    22    7   34 1
    23    8   35 1
    24    8   36 1
    25    9   10 am
    26    9   37 1
    27   10   11 2
    28   10   12 am
    29   12   13 am
    30   12   38 1
    31   13   14 2
    32   13   15 1
    33   15   16 1
    34   15   39 1
    35   15   40 1
    36   16   17 1
    37   16   41 1
    38   16   42 1
    39   17   18 1
    40   17   43 1
    41   17   44 1
    42   18   19 1
    43   18   45 1
    44   18   46 1
    45   19   20 2
    46   19   21 1
@<TRIPOS>MOLECULE
ZINC42869601
   40    40     0     0     0
SMALL
USER_CHARGES

@<TRIPOS>ATOM
      1 C1         -0.0187    1.5258    0.0104 C.3       1 <0>        -0.1571
      2 C2          0.0021   -0.0041    0.0020 C.3       1 <0>        -0.0826
      3 H1         -1.0205   -0.3814    0.0098 H         1 <0>         0.0729
      4 C3          0.7182   -0.4975   -1.2568 C.3       1 <0>        -0.1131
      5 C4          2.1536    0.0321   -1.2676 C.3       1 <0>        -0.1227
      6 C5          2.8936   -0.4747   -0.0281 C.3       1 <0>        -0.1189
      7 C6          2.1775    0.0187    1.2307 C.3       1 <0>        -0.1182
      8 C7          0.7421   -0.5109    1.2415 C.3       1 <0>        -0.0933
      9 H2          0.7568   -1.6008    1.2356 H         1 <0>         0.0776
     10 C8          0.0259   -0.0175    2.5003 C.3       1 <0>         0.1385
     11 N1          0.6628   -0.5996    3.6843 N.am      1 <0>        -0.7417
     12 C9          0.1968   -0.3041    4.9140 C.2       1 <0>         0.6910
     13 O1         -0.7516    0.4452    5.0406 O.2       1 <0>        -0.5348
     14 N2          0.7827   -0.8396    6.0033 N.am      1 <0>        -0.6950
     15 C10         0.3168   -0.5441    7.2329 C.2       1 <0>         0.5111
     16 O2         -0.6293    0.2033    7.3592 O.2       1 <0>        -0.4717
     17 C11         0.9719   -1.1429    8.4509 C.3       1 <0>        -0.1086
     18 C12         0.2557   -0.6495    9.7097 C.3       1 <0>        -0.1703
     19 C13         0.9108   -1.2483   10.9276 C.2       1 <0>         0.4922
     20 O3          1.8623   -2.0000   10.8006 O.co2     1 <0>        -0.7018
     21 O4          0.4894   -0.9810   12.0400 O.co2     1 <0>        -0.7001
     22 H3          1.0039    1.9031    0.0027 H         1 <0>         0.0620
     23 H4         -0.5459    1.8868   -0.8726 H         1 <0>         0.0538
     24 H5         -0.5289    1.8773    0.9072 H         1 <0>         0.0593
     25 H6          0.7330   -1.5874   -1.2628 H         1 <0>         0.0615
     26 H7          0.1910   -0.1364   -2.1398 H         1 <0>         0.0624
     27 H8          2.6638   -0.3194   -2.1644 H         1 <0>         0.0588
     28 H9          2.1388    1.1220   -1.2617 H         1 <0>         0.0652
     29 H10         2.9084   -1.5646   -0.0341 H         1 <0>         0.0611
     30 H11         3.9162   -0.0975   -0.0359 H         1 <0>         0.0613
     31 H12         2.7046   -0.3424    2.1137 H         1 <0>         0.0621
     32 H13         2.1627    1.1086    1.2367 H         1 <0>         0.0689
     33 H14         0.0885    1.0695    2.5515 H         1 <0>         0.0707
     34 H15        -1.0207   -0.3199    2.4651 H         1 <0>         0.0670
     35 H16         1.4197   -1.1976    3.5833 H         1 <0>         0.3963
     36 H17         1.5397   -1.4377    5.9022 H         1 <0>         0.4087
     37 H18         0.9093   -2.2299    8.3997 H         1 <0>         0.0980
     38 H19         2.0185   -0.8405    8.4862 H         1 <0>         0.0980
     39 H20         0.3184    0.4375    9.7608 H         1 <0>         0.0658
     40 H21        -0.7909   -0.9519    9.6744 H         1 <0>         0.0658
@<TRIPOS>BOND
     1    1    2 1
     2    1   22 1
     3    1   23 1
     4    1   24 1
     5    2    3 1
     6    2    8 1
     7    2    4 1
     8    4    5 1
     9    4   25 1
    10    4   26 1
    11    5    6 1
    12    5   27 1
    13    5   28 1
    14    6    7 1
    15    6   29 1
    16    6   30 1
    17    7    8 1
    18    7   31 1
    19    7   32 1
    20    8    9 1
    21    8   10 1
    22   10   11 1
    23   10   33 1
    24   10   34 1
    25   11   12 am
    26   11   35 1
    27   12   13 2
    28   12   14 am
    29   14   15 am
    30   14   36 1
    31   15   16 2
    32   15   17 1
    33   17   18 1
    34   17   37 1
    35   17   38 1
    36   18   19 1
    37   18   39 1
    38   18   40 1
    39   19   20 2
    40   19   21 1
@<TRIPOS>MOLECULE
ZINC50851756
   35    35     0     0     0
SMALL
USER_CHARGES

@<TRIPOS>ATOM
      1 C1         -0.0187    1.5258    0.0104 C.3       1 <0>        -0.1492
      2 C2          0.0021   -0.0041    0.0020 C.3       1 <0>         0.1347
      3 H1          0.5123   -0.3556   -0.8948 H         1 <0>         0.0925
      4 C3          0.7309   -0.5033    1.2229 C.2       1 <0>         0.3382
      5 O1          0.2247   -0.2771    2.4470 O.3       1 <0>        -0.6034
      6 C4          1.9038   -1.1843    1.0856 C.2       1 <0>        -0.4115
      7 C5          2.4433   -1.4253   -0.2188 C.1       1 <0>         0.2937
      8 N1          2.8713   -1.6165   -1.2536 N.1       1 <0>        -0.5298
      9 C6          2.6149   -1.6713    2.2766 C.2       1 <0>         0.5933
     10 O2          2.1565   -1.4666    3.3848 O.2       1 <0>        -0.5427
     11 N2          3.7745   -2.3446    2.1408 N.am      1 <0>        -0.7522
     12 C7          4.4831   -2.8299    3.3277 C.3       1 <0>         0.1522
     13 C8          5.7408   -3.5442    2.9048 C.2       1 <0>        -0.1629
     14 C9          6.8994   -3.1739    3.3913 C.2       1 <0>        -0.1823
     15 N3         -1.3723   -0.5112    0.0124 N.am      1 <0>        -0.6978
     16 C10        -2.0508   -0.6427   -1.1446 C.2       1 <0>         0.5974
     17 O3         -1.5218   -0.3403   -2.1981 O.2       1 <0>        -0.5330
     18 C11        -3.4260   -1.1501   -1.1342 C.2       1 <0>        -0.2394
     19 C12        -4.2867   -1.3641   -2.2000 C.2       1 <0>        -0.0813
     20 C13        -5.5293   -1.8530   -1.8750 C.2       1 <0>        -0.1827
     21 C14        -5.8253   -2.0877   -0.5728 C.2       1 <0>        -0.2378
     22 S1         -4.4251   -1.6602    0.2513 S.3       1 <0>         0.2163
     23 H2          1.0039    1.9031    0.0027 H         1 <0>         0.0661
     24 H3         -0.5459    1.8868   -0.8726 H         1 <0>         0.0561
     25 H4         -0.5289    1.8773    0.9072 H         1 <0>         0.0656
     26 H5          4.1399   -2.5078    1.2572 H         1 <0>         0.3895
     27 H6          4.7420   -1.9857    3.9668 H         1 <0>         0.0627
     28 H7          3.8416   -3.5185    3.8775 H         1 <0>         0.0670
     29 H8          5.6871   -4.3613    2.2006 H         1 <0>         0.1106
     30 H9          7.8008   -3.6858    3.0882 H         1 <0>         0.0975
     31 H10         6.9532   -2.3568    4.0954 H         1 <0>         0.0986
     32 H11        -1.7940   -0.7522    0.8520 H         1 <0>         0.4054
     33 H12        -3.9990   -1.1593   -3.2207 H         1 <0>         0.1481
     34 H13        -6.2601   -2.0473   -2.6462 H         1 <0>         0.1345
     35 H14        -6.7483   -2.4674   -0.1601 H         1 <0>         0.1861
@<TRIPOS>BOND
     1    1    2 1
     2    1   23 1
     3    1   24 1
     4    1   25 1
     5    2    3 1
     6    2    4 1
     7    2   15 1
     8    4    5 1
     9    4    6 2
    10    6    7 1
    11    6    9 1
    12    7    8 3
    13    9   10 2
    14    9   11 am
    15   11   12 1
    16   11   26 1
    17   12   13 1
    18   12   27 1
    19   12   28 1
    20   13   14 2
    21   13   29 1
    22   14   30 1
    23   14   31 1
    24   15   16 am
    25   15   32 1
    26   16   17 2
    27   16   18 1
    28   18   22 1
    29   18   19 2
    30   19   20 1
    31   19   33 1
    32   20   21 2
    33   20   34 1
    34   21   22 1
    35   21   35 1
@<TRIPOS>MOLECULE
ZINC61835624
   35    36     0     0     0
SMALL
USER_CHARGES

@<TRIPOS>ATOM
      1 C1         -0.0259    1.5086    0.0051 C.3       1 <0>        -0.1496
      2 C2          0.0058   -0.0211   -0.0065 C.3       1 <0>        -0.0507
      3 H1          0.5213   -0.3670   -0.9025 H         1 <0>         0.0781
      4 C3          0.7456   -0.5253    1.2342 C.3       1 <0>        -0.1375
      5 C4          2.1886   -0.0961    1.1677 C.2       1 <0>         0.5158
      6 O1          2.5863    0.5496    0.2211 O.2       1 <0>        -0.4999
      7 N1          3.0373   -0.4297    2.1601 N.am      1 <0>        -0.6745
      8 C5          4.4018   -0.1323    2.0447 C.ar      1 <0>         0.1572
      9 C6          4.9809    0.0142    0.7899 C.ar      1 <0>        -0.0705
     10 C7          6.3214    0.3062    0.6835 C.ar      1 <0>        -0.1096
     11 C8          7.1106    0.4580    1.8170 C.ar      1 <0>         0.1253
     12 C9          6.5266    0.3100    3.0734 C.ar      1 <0>        -0.1071
     13 C10         5.1813    0.0232    3.1845 C.ar      1 <0>        -0.0432
     14 Cl1         4.4614   -0.1511    4.7545 Cl        1 <0>        -0.0557
     15 N2          8.4274    0.7492    1.4523 N.am      1 <0>        -0.6566
     16 C11         8.5848    0.8058    0.1191 C.2       1 <0>         0.5314
     17 O2          9.6161    1.0391   -0.4751 O.2       1 <0>        -0.5046
     18 C12         7.2334    0.5237   -0.5021 C.3       1 <0>        -0.1159
     19 C13        -1.4257   -0.5609   -0.0013 C.3       1 <0>        -0.1809
     20 C14        -2.1159   -0.1667   -1.2817 C.2       1 <0>         0.4907
     21 O3         -1.5182    0.4856   -2.1206 O.co2     1 <0>        -0.6897
     22 O4         -3.2720   -0.5001   -1.4786 O.co2     1 <0>        -0.7093
     23 H2          0.9940    1.8932    0.0014 H         1 <0>         0.0535
     24 H3         -0.5529    1.8678   -0.8788 H         1 <0>         0.0851
     25 H4         -0.5414    1.8544    0.9011 H         1 <0>         0.0286
     26 H5          0.2829   -0.1070    2.1281 H         1 <0>         0.0927
     27 H6          0.6915   -1.6133    1.2723 H         1 <0>         0.0939
     28 H7          2.7036   -0.8757    2.9543 H         1 <0>         0.4134
     29 H8          4.3800   -0.1012   -0.1001 H         1 <0>         0.1660
     30 H9          7.1277    0.4247    3.9633 H         1 <0>         0.1402
     31 H10         9.1452    0.8945    2.0882 H         1 <0>         0.4132
     32 H11         7.2770   -0.3733   -1.1199 H         1 <0>         0.1287
     33 H12         6.8979    1.3777   -1.0904 H         1 <0>         0.1304
     34 H13        -1.4039   -1.6477    0.0799 H         1 <0>         0.0551
     35 H14        -1.9682   -0.1440    0.8472 H         1 <0>         0.0561
@<TRIPOS>BOND
     1    1    2 1
     2    1   23 1
     3    1   24 1
     4    1   25 1
     5    2    3 1
     6    2    4 1
     7    2   19 1
     8    4    5 1
     9    4   26 1
    10    4   27 1
    11    5    6 2
    12    5    7 am
    13    7    8 1
    14    7   28 1
    15    8   13 ar
    16    8    9 ar
    17    9   10 ar
    18    9   29 1
    19   10   18 1
    20   10   11 ar
    21   11   12 ar
    22   11   15 1
    23   12   13 ar
    24   12   30 1
    25   13   14 1
    26   15   16 am
    27   15   31 1
    28   16   17 2
    29   16   18 1
    30   18   32 1
    31   18   33 1
    32   19   20 1
    33   19   34 1
    34   19   35 1
    35   20   21 2
    36   20   22 1
@<TRIPOS>MOLECULE
ZINC66873857
   44    45     0     0     0
SMALL
USER_CHARGES

@<TRIPOS>ATOM
      1 C1         -2.9527    0.6454   -0.5835 C.3       1 <0>        -0.1662
      2 C2         -2.2828   -0.7029   -0.5170 C.2       1 <0>         0.4976
      3 O1         -2.6839   -1.5416    0.2620 O.2       1 <0>        -0.4829
      4 N1         -1.2380   -0.9767   -1.3231 N.am      1 <0>        -0.6719
      5 C3         -0.5419   -2.1848   -1.1820 C.ar      1 <0>         0.1385
      6 C4         -0.5483   -2.8516    0.0346 C.ar      1 <0>        -0.1039
      7 C5          0.1410   -4.0474    0.1716 C.ar      1 <0>         0.1574
      8 C6          0.8371   -4.5755   -0.9104 C.ar      1 <0>         0.0576
      9 C7          0.8426   -3.9089   -2.1224 C.ar      1 <0>        -0.1448
     10 C8          0.1508   -2.7188   -2.2627 C.ar      1 <0>         0.0560
     11 F1          0.1532   -2.0725   -3.4490 F         1 <0>        -0.1370
     12 F2          1.5087   -5.7402   -0.7775 F         1 <0>        -0.1348
     13 N2          0.1365   -4.7227    1.3995 N.am      1 <0>        -0.6791
     14 C9         -0.0752   -4.0409    2.5427 C.2       1 <0>         0.5289
     15 O2         -0.1618   -2.8313    2.5203 O.2       1 <0>        -0.4732
     16 C10        -0.2043   -4.7816    3.8488 C.3       1 <0>        -0.1042
     17 C11        -0.4383   -3.7804    4.9818 C.3       1 <0>        -0.1100
     18 C12         0.7439   -2.8123    5.0592 C.3       1 <0>        -0.1034
     19 C13         2.0291   -3.5973    5.3296 C.3       1 <0>        -0.1199
     20 C14         1.8980   -4.3492    6.6556 C.3       1 <0>        -0.1148
     21 C15         0.7158   -5.3173    6.5782 C.3       1 <0>        -0.1199
     22 C16        -0.5694   -4.5323    6.3079 C.3       1 <0>        -0.0927
     23 C17        -1.7041   -3.0072    4.7155 C.2       1 <0>         0.5120
     24 O3         -2.3585   -3.2357    3.7125 O.co2     1 <0>        -0.6840
     25 O4         -2.0739   -2.1531    5.5032 O.co2     1 <0>        -0.7042
     26 H1         -2.4686    1.3266    0.1163 H         1 <0>         0.0994
     27 H2         -2.8688    1.0433   -1.5948 H         1 <0>         0.0788
     28 H3         -4.0053    0.5415   -0.3202 H         1 <0>         0.0986
     29 H4         -0.9678   -0.3376   -2.0010 H         1 <0>         0.4122
     30 H5         -1.0890   -2.4400    0.8740 H         1 <0>         0.2030
     31 H6          1.3842   -4.3200   -2.9615 H         1 <0>         0.1510
     32 H7          0.2857   -5.6807    1.4267 H         1 <0>         0.4092
     33 H8         -1.0466   -5.4713    3.7937 H         1 <0>         0.0901
     34 H9          0.7112   -5.3408    4.0414 H         1 <0>         0.0782
     35 H10         0.8373   -2.2766    4.1145 H         1 <0>         0.0777
     36 H11         0.5772   -2.0990    5.8664 H         1 <0>         0.0601
     37 H12         2.1958   -4.3105    4.5224 H         1 <0>         0.0519
     38 H13         2.8713   -2.9076    5.3847 H         1 <0>         0.0510
     39 H14         2.8135   -4.9084    6.8482 H         1 <0>         0.0500
     40 H15         1.7313   -3.6359    7.4628 H         1 <0>         0.0592
     41 H16         0.8825   -6.0306    5.7710 H         1 <0>         0.0567
     42 H17         0.6224   -5.8530    7.5229 H         1 <0>         0.0528
     43 H18        -0.7361   -3.8191    7.1151 H         1 <0>         0.0673
     44 H19        -1.4116   -5.2220    6.2527 H         1 <0>         0.0518
@<TRIPOS>BOND
     1    1    2 1
     2    1   26 1
     3    1   27 1
     4    1   28 1
     5    2    3 2
     6    2    4 am
     7    4    5 1
     8    4   29 1
     9    5   10 ar
    10    5    6 ar
    11    6    7 ar
    12    6   30 1
    13    7    8 ar
    14    7   13 1
    15    8    9 ar
    16    8   12 1
    17    9   10 ar
    18    9   31 1
    19   10   11 1
    20   13   14 am
    21   13   32 1
    22   14   15 2
    23   14   16 1
    24   16   17 1
    25   16   33 1
    26   16   34 1
    27   17   22 1
    28   17   18 1
    29   17   23 1
    30   18   19 1
    31   18   35 1
    32   18   36 1
    33   19   20 1
    34   19   37 1
    35   19   38 1
    36   20   21 1
    37   20   39 1
    38   20   40 1
    39   21   22 1
    40   21   41 1
    41   21   42 1
    42   22   43 1
    43   22   44 1
    44   23   24 2
    45   23   25 1
@<TRIPOS>MOLECULE
ZINC25492868
   36    37     0     0     0
SMALL
USER_CHARGES
cyclohexyl 2-(4-amino-6-hydroxy-pyrimidin-2-yl)sulfanylacetate
@<TRIPOS>ATOM
      1 C1          1.8671    1.8246    1.1921 C.2       1 <0>        -0.3641
      2 C2          3.1328    2.4040    1.1354 C.2       1 <0>         0.4728
      3 N1          3.6725    2.6646   -0.0523 N.2       1 <0>        -0.5448
      4 C3          3.0225    2.3750   -1.1702 C.2       1 <0>         0.3732
      5 N2          1.8197    1.8192   -1.1521 N.am      1 <0>        -0.6063
      6 C4          1.2196    1.5309   -0.0014 C.2       1 <0>         0.4784
      7 O1         -0.0110    0.9628    0.0073 O.2       1 <0>        -0.6245
      8 S1          3.7766    2.7389   -2.7205 S.3       1 <0>         0.1356
      9 C5          2.4841    2.1530   -3.8441 C.3       1 <0>        -0.1855
     10 C6          2.9218    2.3695   -5.2697 C.2       1 <0>         0.4913
     11 O2          3.9973    2.8686   -5.5024 O.2       1 <0>        -0.4816
     12 O3          2.1169    2.0077   -6.2812 O.3       1 <0>        -0.3457
     13 C7          2.6034    2.2459   -7.6284 C.3       1 <0>         0.0916
     14 C8          2.1694    3.6391   -8.0885 C.3       1 <0>        -0.1371
     15 C9          2.6820    3.8901   -9.5080 C.3       1 <0>        -0.1174
     16 C10         2.1014    2.8367  -10.4536 C.3       1 <0>        -0.1266
     17 C11         2.5354    1.4436   -9.9935 C.3       1 <0>        -0.1178
     18 C12         2.0228    1.1926   -8.5740 C.3       1 <0>        -0.1170
     19 N3          3.8182    2.7095    2.3006 N.pl3     1 <0>        -0.8458
     20 H1          1.4018    1.6052    2.1417 H         1 <0>         0.1523
     21 H2          2.3083    1.0806   -3.6733 H         1 <0>         0.1461
     22 H3          1.5549    2.7112   -3.6570 H         1 <0>         0.1461
     23 H4          3.7001    2.1716   -7.5857 H         1 <0>         0.0909
     24 H5          1.0713    3.7030   -8.0785 H         1 <0>         0.0767
     25 H6          2.5869    4.3964   -7.4086 H         1 <0>         0.0702
     26 H7          2.3699    4.8917   -9.8388 H         1 <0>         0.0724
     27 H8          3.7801    3.8264   -9.5179 H         1 <0>         0.0673
     28 H9          1.0033    2.9005  -10.4437 H         1 <0>         0.0668
     29 H10         2.4700    3.0171  -11.4742 H         1 <0>         0.0692
     30 H11         2.1179    0.6863  -10.6734 H         1 <0>         0.0755
     31 H12         3.6335    1.3797  -10.0035 H         1 <0>         0.0673
     32 H13         2.3349    0.1910   -8.2432 H         1 <0>         0.0744
     33 H14         0.9247    1.2564   -8.5641 H         1 <0>         0.0787
     34 H15         4.8172    3.1669    2.2472 H         1 <0>         0.4334
     35 H16         3.3632    2.4946    3.2788 H         1 <0>         0.4426
     36 H17         1.3052    1.5906   -2.0971 H         1 <0>         0.4415
@<TRIPOS>BOND
     1    1    6 1
     2    1    2 2
     3    1   20 1
     4    2    3 1
     5    2   19 1
     6    3    4 2
     7    4    5 1
     8    4    8 1
     9    5    6 am
    10    5   36 1
    11    6    7 2
    12    8    9 1
    13    9   10 1
    14    9   21 1
    15    9   22 1
    16   10   11 2
    17   10   12 1
    18   12   13 1
    19   13   18 1
    20   13   14 1
    21   13   23 1
    22   14   15 1
    23   14   24 1
    24   14   25 1
    25   15   16 1
    26   15   26 1
    27   15   27 1
    28   16   17 1
    29   16   28 1
    30   16   29 1
    31   17   18 1
    32   17   30 1
    33   17   31 1
    34   18   32 1
    35   18   33 1
    36   19   34 1
    37   19   35 1
@<TRIPOS>MOLECULE
ZINC42839429
   41    41     0     0     0
SMALL
USER_CHARGES

@<TRIPOS>ATOM
      1 C1          0.3923    1.3044   -0.3614 C.3       1 <0>        -0.1598
      2 C2          0.3555   -0.2224   -0.2699 C.3       1 <0>         0.2008
      3 H1          0.9045   -0.6500   -1.1088 H         1 <0>         0.0999
      4 C3          0.9908   -0.6636    1.0235 C.ar      1 <0>        -0.0819
      5 C4          0.2659   -0.6147    2.2001 C.ar      1 <0>        -0.1058
      6 C5          0.8450   -1.0183    3.3871 C.ar      1 <0>        -0.0956
      7 C6          2.1573   -1.4737    3.3982 C.ar      1 <0>         0.1186
      8 C7          2.8826   -1.5216    2.2145 C.ar      1 <0>        -0.1127
      9 C8          2.2955   -1.1218    1.0301 C.ar      1 <0>        -0.1000
     10 N1          2.7463   -1.8822    4.5970 N.pl3     1 <0>        -1.0654
     11 S1          2.3380   -3.3414    5.2651 S.o2      1 <0>         2.6089
     12 O1          3.1085   -3.4231    6.4563 O.2       1 <0>        -0.9530
     13 O2          0.9181   -3.3305    5.3200 O.2       1 <0>        -0.9483
     14 C9          2.9074   -4.5784    4.0666 C.3       1 <0>        -0.6706
     15 N2         -1.0354   -0.6807   -0.3120 N.am      1 <0>        -0.7431
     16 C10        -1.6482   -0.8659   -1.4980 C.2       1 <0>         0.7060
     17 O3         -1.0468   -0.6527   -2.5329 O.2       1 <0>        -0.5878
     18 N3         -2.9278   -1.2875   -1.5367 N.am      1 <0>        -0.7426
     19 C11        -3.5939   -1.4889   -2.8259 C.3       1 <0>         0.1542
     20 C12        -3.2708   -2.8881   -3.3538 C.3       1 <0>        -0.1652
     21 C13        -5.1068   -1.3486   -2.6456 C.3       1 <0>        -0.1617
     22 H2          1.4272    1.6454   -0.3300 H         1 <0>         0.0688
     23 H3         -0.0672    1.6236   -1.2968 H         1 <0>         0.0678
     24 H4         -0.1567    1.7321    0.4776 H         1 <0>         0.0589
     25 H5         -0.7542   -0.2601    2.1908 H         1 <0>         0.1283
     26 H6          0.2784   -0.9795    4.3057 H         1 <0>         0.1386
     27 H7          3.9032   -1.8748    2.2197 H         1 <0>         0.1332
     28 H8          2.8574   -1.1629    0.1087 H         1 <0>         0.1336
     29 H9          3.3945   -1.3112    5.0382 H         1 <0>         0.4261
     30 H10         3.9946   -4.5432    3.9968 H         1 <0>         0.1308
     31 H11         2.5962   -5.5708    4.3931 H         1 <0>         0.1325
     32 H12         2.4735   -4.3646    3.0898 H         1 <0>         0.1287
     33 H13        -1.5152   -0.8508    0.5137 H         1 <0>         0.3956
     34 H14        -3.4076   -1.4576   -0.7111 H         1 <0>         0.3952
     35 H15        -3.2420   -0.7419   -3.5373 H         1 <0>         0.0886
     36 H16        -3.6228   -3.6351   -2.6424 H         1 <0>         0.0553
     37 H17        -3.7665   -3.0379   -4.3130 H         1 <0>         0.0658
     38 H18        -2.1930   -2.9881   -3.4823 H         1 <0>         0.0608
     39 H19        -5.3370   -0.3518   -2.2695 H         1 <0>         0.0616
     40 H20        -5.6024   -1.4984   -3.6048 H         1 <0>         0.0744
     41 H21        -5.4587   -2.0956   -1.9341 H         1 <0>         0.0607
@<TRIPOS>BOND
     1    1    2 1
     2    1   22 1
     3    1   23 1
     4    1   24 1
     5    2    3 1
     6    2    4 1
     7    2   15 1
     8    4    9 ar
     9    4    5 ar
    10    5    6 ar
    11    5   25 1
    12    6    7 ar
    13    6   26 1
    14    7    8 ar
    15    7   10 1
    16    8    9 ar
    17    8   27 1
    18    9   28 1
    19   10   11 1
    20   10   29 1
    21   11   12 2
    22   11   13 2
    23   11   14 1
    24   14   30 1
    25   14   31 1
    26   14   32 1
    27   15   16 am
    28   15   33 1
    29   16   17 2
    30   16   18 am
    31   18   19 1
    32   18   34 1
    33   19   20 1
    34   19   21 1
    35   19   35 1
    36   20   36 1
    37   20   37 1
    38   20   38 1
    39   21   39 1
    40   21   40 1
    41   21   41 1
@<TRIPOS>MOLECULE
ZINC50122295
   42    44     0     0     0
SMALL
NO_CHARGES

@<TRIPOS>ATOM
      1 C1         -0.0173    1.4248    0.0099 C.3       1 <0>         0.0276
      2 O1          0.0021   -0.0041    0.0020 O.3       1 <0>        -0.3151
      3 C2          0.6058   -0.6071   -1.0557 C.ar      1 <0>         0.1977
      4 C3          1.1724    0.1615   -2.0613 C.ar      1 <0>        -0.3357
      5 C4          1.7888   -0.4538   -3.1404 C.ar      1 <0>         0.2043
      6 C5          1.8387   -1.8378   -3.2138 C.ar      1 <0>        -0.2101
      7 C6          1.2725   -2.6063   -2.2079 C.ar      1 <0>         0.2229
      8 C7          0.6602   -1.9910   -1.1265 C.ar      1 <0>        -0.2846
      9 O2          1.3213   -3.9625   -2.2799 O.3       1 <0>        -0.2744
     10 C8          0.7179   -4.6911   -1.2089 C.3       1 <0>         0.0230
     11 C9          2.5077   -2.5065   -4.3870 C.3       1 <0>         0.3065
     12 C10         3.8364   -3.1079   -3.9703 C.cat     1 <0>        -0.0351
     13 N1          3.6935   -4.4585   -4.2060 N.pl3     1 <0>        -0.3205
     14 C11         2.4493   -4.7184   -4.7071 C.cat     1 <0>         0.0044
     15 N2          1.7202   -3.6635   -4.8399 N.pl3     1 <0>        -0.6670
     16 C12         4.7252   -5.4679   -3.9556 C.3       1 <0>         0.0622
     17 C13         4.4632   -6.8870   -4.4641 C.3       1 <0>        -0.1736
     18 C14         4.3938   -6.5863   -2.9656 C.3       1 <0>        -0.1771
     19 N3          4.8706   -2.4922   -3.4999 N.pl3     1 <0>        -0.8256
     20 O3          2.3437    0.2993   -4.1261 O.3       1 <0>        -0.3046
     21 C15         2.2552    1.7186   -3.9858 C.3       1 <0>         0.0265
     22 H1          1.0053    1.8021    0.0021 H         1 <0>         0.0556
     23 H2         -0.5445    1.7859   -0.8732 H         1 <0>         0.0557
     24 H3         -0.5275    1.7763    0.9067 H         1 <0>         0.1014
     25 H4          1.1332    1.2393   -2.0043 H         1 <0>         0.1323
     26 H5          0.2228   -2.5895   -0.3411 H         1 <0>         0.1325
     27 H6          0.8270   -5.7604   -1.3901 H         1 <0>         0.0964
     28 H7          1.2073   -4.4298   -0.2706 H         1 <0>         0.0521
     29 H8         -0.3408   -4.4389   -1.1491 H         1 <0>         0.0535
     30 H9          2.1099   -5.7100   -4.9679 H         1 <0>         0.1611
     31 H10         5.7530   -5.1059   -3.9803 H         1 <0>         0.1305
     32 H11         3.5233   -7.0695   -4.9849 H         1 <0>         0.1050
     33 H12         5.3188   -7.4588   -4.8236 H         1 <0>         0.1064
     34 H13         5.2036   -6.9603   -2.3391 H         1 <0>         0.1033
     35 H14         3.4081   -6.5710   -2.5005 H         1 <0>         0.1028
     36 H15         4.8486   -1.5301   -3.3784 H         1 <0>         0.4006
     37 H16         2.6479   -1.7964   -5.2019 H         1 <0>         0.0485
     38 H17         1.2070    2.0151   -3.9456 H         1 <0>         0.0543
     39 H18         2.7549    2.0248   -3.0668 H         1 <0>         0.0547
     40 H19         2.7360    2.1987   -4.8382 H         1 <0>         0.1022
     41 H20         5.6690   -2.9921   -3.2683 H         1 <0>         0.3808
     42 H21         0.8113   -3.6360   -5.1777 H         1 <0>         0.4185
@<TRIPOS>BOND
     1    1    2 1
     2    1   22 1
     3    1   23 1
     4    1   24 1
     5    2    3 1
     6    3    8 ar
     7    3    4 ar
     8    4    5 ar
     9    4   25 1
    10    5    6 ar
    11    5   20 1
    12    6    7 ar
    13    6   11 1
    14    7    8 ar
    15    7    9 1
    16    8   26 1
    17    9   10 1
    18   10   27 1
    19   10   28 1
    20   10   29 1
    21   11   37 1
    22   11   15 1
    23   11   12 1
    24   12   13 1
    25   12   19 2
    26   13   14 1
    27   13   16 1
    28   14   15 2
    29   14   30 1
    30   15   42 1
    31   16   18 1
    32   16   17 1
    33   16   31 1
    34   17   18 1
    35   17   32 1
    36   17   33 1
    37   18   34 1
    38   18   35 1
    39   19   36 1
    40   19   41 1
    41   20   21 1
    42   21   38 1
    43   21   39 1
    44   21   40 1
@<TRIPOS>MOLECULE
ZINC61639423
   35    36     0     0     0
SMALL
USER_CHARGES

@<TRIPOS>ATOM
      1 C1         -0.0225    1.8097    0.0120 C.3       1 <0>        -0.6517
      2 S1          0.0021   -0.0041    0.0020 S.o2      1 <0>         2.5050
      3 O1          0.8352   -0.4880    1.0465 O.2       1 <0>        -0.9398
      4 O2         -1.3147   -0.5105   -0.1678 O.2       1 <0>        -0.9389
      5 C2          0.8454   -0.4373   -1.4831 C.ar      1 <0>        -0.7002
      6 C3          0.1333   -0.6124   -2.6553 C.ar      1 <0>         0.0157
      7 C4          0.7921   -0.9525   -3.8209 C.ar      1 <0>        -0.1692
      8 C5          2.1695   -1.1180   -3.8148 C.ar      1 <0>         0.1900
      9 C6          2.8818   -0.9413   -2.6375 C.ar      1 <0>        -0.2300
     10 C7          2.2189   -0.5961   -1.4757 C.ar      1 <0>         0.0189
     11 O3          2.8198   -1.4530   -4.9601 O.3       1 <0>        -0.2936
     12 C8          4.2382   -1.6068   -4.8795 C.3       1 <0>         0.1057
     13 C9          4.7814   -1.9761   -6.2358 C.ar      1 <0>         0.1832
     14 C10         4.8809   -3.3075   -6.5913 C.ar      1 <0>        -0.1276
     15 C11         5.3825   -3.6414   -7.8431 C.ar      1 <0>        -0.0209
     16 C12         5.7666   -2.6204   -8.6940 C.ar      1 <0>        -0.2129
     17 C13         5.6385   -1.3020   -8.2700 C.ar      1 <0>         0.4143
     18 N1          5.1508   -1.0236   -7.0709 N.ar      1 <0>        -0.4958
     19 N2          6.0215   -0.2663   -9.1154 N.pl3     1 <0>        -0.5678
     20 N3          5.8984    1.0309   -8.7055 N.3       1 <0>        -0.5971
     21 Cl1         4.3851   -4.5501   -5.4851 Cl        1 <0>        -0.0513
     22 H1          1.0001    2.1870    0.0043 H         1 <0>         0.1307
     23 H2         -0.5497    2.1708   -0.8711 H         1 <0>         0.1313
     24 H3         -0.5327    2.1613    0.9088 H         1 <0>         0.1321
     25 H4         -0.9390   -0.4835   -2.6595 H         1 <0>         0.1495
     26 H5          0.2353   -1.0899   -4.7360 H         1 <0>         0.1422
     27 H6          3.9541   -1.0696   -2.6302 H         1 <0>         0.1387
     28 H7          2.7735   -0.4541   -0.5599 H         1 <0>         0.1455
     29 H8          4.6872   -0.6694   -4.5512 H         1 <0>         0.0898
     30 H9          4.4783   -2.3944   -4.1652 H         1 <0>         0.0911
     31 H10         5.4708   -4.6746   -8.1451 H         1 <0>         0.1512
     32 H11         6.1610   -2.8442   -9.6742 H         1 <0>         0.1450
     33 H12         6.3759   -0.4650   -9.9962 H         1 <0>         0.4148
     34 H13         6.3937    1.1852   -7.8400 H         1 <0>         0.3447
     35 H14         6.2143    1.6679   -9.4214 H         1 <0>         0.3574
@<TRIPOS>BOND
     1    1    2 1
     2    1   22 1
     3    1   23 1
     4    1   24 1
     5    2    3 2
     6    2    4 2
     7    2    5 1
     8    5   10 ar
     9    5    6 ar
    10    6    7 ar
    11    6   25 1
    12    7    8 ar
    13    7   26 1
    14    8    9 ar
    15    8   11 1
    16    9   10 ar
    17    9   27 1
    18   10   28 1
    19   11   12 1
    20   12   13 1
    21   12   29 1
    22   12   30 1
    23   13   18 ar
    24   13   14 ar
    25   14   15 ar
    26   14   21 1
    27   15   16 ar
    28   15   31 1
    29   16   17 ar
    30   16   32 1
    31   17   18 ar
    32   17   19 1
    33   19   20 1
    34   19   33 1
    35   20   34 1
    36   20   35 1
@<TRIPOS>MOLECULE
ZINC67189853
   43    44     0     0     0
SMALL
USER_CHARGES

@<TRIPOS>ATOM
      1 C1         -2.7727    1.2981    0.3279 C.3       1 <0>        -0.1180
      2 C2         -2.4745   -0.1785    0.2853 C.ar      1 <0>        -0.0907
      3 C3         -2.3992   -0.8328   -0.9317 C.ar      1 <0>        -0.0882
      4 C4         -2.1259   -2.1880   -0.9796 C.ar      1 <0>        -0.1197
      5 C5         -1.9268   -2.8964    0.1876 C.ar      1 <0>        -0.0915
      6 C6         -2.0013   -2.2427    1.4183 C.ar      1 <0>        -0.1278
      7 C7         -2.2715   -0.8737    1.4593 C.ar      1 <0>        -0.0547
      8 C8         -1.7896   -2.9956    2.6730 C.2       1 <0>         0.5646
      9 O1         -1.8550   -2.4235    3.7434 O.2       1 <0>        -0.5303
     10 N1         -1.5240   -4.3162    2.6297 N.am      1 <0>        -0.5196
     11 N2         -1.3233   -5.0296    3.8187 N.am      1 <0>        -0.5142
     12 C9         -1.0577   -6.3502    3.7755 C.2       1 <0>         0.5124
     13 O2         -0.9924   -6.9210    2.7074 O.2       1 <0>        -0.5349
     14 C10        -0.8419   -7.1177    5.0544 C.3       1 <0>         0.1128
     15 N3         -0.5719   -8.5230    4.7409 N.am      1 <0>        -0.7180
     16 C11        -0.3464   -9.4040    5.7356 C.2       1 <0>         0.5651
     17 O3         -0.3672   -9.0326    6.8928 O.2       1 <0>        -0.5264
     18 C12        -0.0739  -10.8223    5.4193 C.ar      1 <0>        -0.1448
     19 C13        -0.1773  -11.2797    4.1044 C.ar      1 <0>        -0.0798
     20 C14         0.0787  -12.6040    3.8160 C.ar      1 <0>        -0.1352
     21 C15         0.4370  -13.4787    4.8267 C.ar      1 <0>        -0.0851
     22 C16         0.5413  -13.0319    6.1318 C.ar      1 <0>        -0.1322
     23 C17         0.2935  -11.7084    6.4330 C.ar      1 <0>        -0.0190
     24 C18         0.4132  -11.2221    7.8543 C.3       1 <0>        -0.1235
     25 H1         -1.8390    1.8588    0.2855 H         1 <0>         0.0752
     26 H2         -3.3972    1.5673   -0.5239 H         1 <0>         0.0709
     27 H3         -3.2978    1.5362    1.2530 H         1 <0>         0.0710
     28 H4         -2.5550   -0.2830   -1.8482 H         1 <0>         0.1309
     29 H5         -2.0685   -2.6928   -1.9327 H         1 <0>         0.1334
     30 H6         -1.7142   -3.9546    0.1489 H         1 <0>         0.1263
     31 H7         -2.3261   -0.3610    2.4083 H         1 <0>         0.1392
     32 H8         -1.4717   -4.7727    1.7755 H         1 <0>         0.4330
     33 H9         -1.3756   -4.5731    4.6729 H         1 <0>         0.4376
     34 H10         0.0070   -6.6958    5.5924 H         1 <0>         0.1104
     35 H11        -1.7356   -7.0490    5.6745 H         1 <0>         0.1105
     36 H12        -0.5553   -8.8195    3.8175 H         1 <0>         0.4124
     37 H13        -0.4575  -10.5982    3.3148 H         1 <0>         0.1272
     38 H14        -0.0009  -12.9592    2.7992 H         1 <0>         0.1299
     39 H15         0.6358  -14.5148    4.5957 H         1 <0>         0.1288
     40 H16         0.8210  -13.7197    6.9161 H         1 <0>         0.1310
     41 H17        -0.5713  -11.2211    8.3221 H         1 <0>         0.0769
     42 H18         1.0787  -11.8831    8.4096 H         1 <0>         0.0596
     43 H19         0.8189  -10.2104    7.8592 H         1 <0>         0.0945
@<TRIPOS>BOND
     1    1    2 1
     2    1   25 1
     3    1   26 1
     4    1   27 1
     5    2    7 ar
     6    2    3 ar
     7    3    4 ar
     8    3   28 1
     9    4    5 ar
    10    4   29 1
    11    5    6 ar
    12    5   30 1
    13    6    7 ar
    14    6    8 1
    15    7   31 1
    16    8    9 2
    17    8   10 am
    18   10   11 1
    19   10   32 1
    20   11   12 am
    21   11   33 1
    22   12   13 2
    23   12   14 1
    24   14   15 1
    25   14   34 1
    26   14   35 1
    27   15   16 am
    28   15   36 1
    29   16   17 2
    30   16   18 1
    31   18   23 ar
    32   18   19 ar
    33   19   20 ar
    34   19   37 1
    35   20   21 ar
    36   20   38 1
    37   21   22 ar
    38   21   39 1
    39   22   23 ar
    40   22   40 1
    41   23   24 1
    42   24   41 1
    43   24   42 1
    44   24   43 1
@<TRIPOS>MOLECULE
ZINC40483133
   39    39     0     0     0
SMALL
USER_CHARGES

@<TRIPOS>ATOM
      1 C1         -0.0187    1.5258    0.0104 C.3       1 <0>        -0.1685
      2 C2          0.0021   -0.0041    0.0020 C.3       1 <0>        -0.1084
      3 C3          0.7421   -0.5109    1.2415 C.3       1 <0>        -0.1679
      4 C4         -1.4333   -0.5336    0.0129 C.3       1 <0>         0.0089
      5 H1         -1.9435   -0.1821    0.9097 H         1 <0>         0.1637
      6 C5         -1.4129   -2.0405    0.0046 C.2       1 <0>         0.4982
      7 O1         -1.5969   -2.6438   -1.0313 O.2       1 <0>        -0.5226
      8 N1         -1.1901   -2.7177    1.1484 N.am      1 <0>        -0.6978
      9 C6         -1.1702   -4.1826    1.1403 C.3       1 <0>         0.1151
     10 C7         -0.8993   -4.6967    2.5556 C.3       1 <0>        -0.0798
     11 C8         -0.8789   -6.2036    2.5473 C.ar      1 <0>        -0.1142
     12 C9         -2.0506   -6.9092    2.7576 C.ar      1 <0>        -0.1300
     13 C10        -2.0393   -8.2884    2.7518 C.ar      1 <0>        -0.0843
     14 C11        -0.8412   -8.9729    2.5326 C.ar      1 <0>        -0.1221
     15 C12         0.3377   -8.2538    2.3206 C.ar      1 <0>        -0.0841
     16 C13         0.3105   -6.8748    2.3239 C.ar      1 <0>        -0.1297
     17 C14        -0.8211  -10.4482    2.5254 C.2       1 <0>         0.5148
     18 O2         -1.8546  -11.0747    2.7117 O.co2     1 <0>        -0.6828
     19 O3          0.2292  -11.0444    2.3332 O.co2     1 <0>        -0.6827
     20 N2         -2.1438   -0.0470   -1.1772 N.4       1 <0>        -0.6210
     21 H2          1.0039    1.9031    0.0027 H         1 <0>         0.0901
     22 H3         -0.5459    1.8868   -0.8726 H         1 <0>         0.0550
     23 H4         -0.5289    1.8773    0.9072 H         1 <0>         0.0767
     24 H5          0.5123   -0.3556   -0.8948 H         1 <0>         0.1039
     25 H6          0.2319   -0.1594    2.1383 H         1 <0>         0.0731
     26 H7          0.7568   -1.6008    1.2356 H         1 <0>         0.0755
     27 H8          1.7647   -0.1336    1.2338 H         1 <0>         0.0867
     28 H9         -1.0429   -2.2352    1.9769 H         1 <0>         0.4092
     29 H10        -2.1342   -4.5571    0.7960 H         1 <0>         0.0836
     30 H11        -0.3845   -4.5316    0.4703 H         1 <0>         0.0840
     31 H12         0.0647   -4.3222    2.8999 H         1 <0>         0.0767
     32 H13        -1.6851   -4.3477    3.2256 H         1 <0>         0.0765
     33 H14        -2.9759   -6.3787    2.9269 H         1 <0>         0.1123
     34 H15        -2.9544   -8.8378    2.9167 H         1 <0>         0.1286
     35 H16         1.2674   -8.7764    2.1504 H         1 <0>         0.1288
     36 H17         1.2202   -6.3176    2.1558 H         1 <0>         0.1127
     37 H18        -2.1575    0.9619   -1.1717 H         1 <0>         0.4387
     38 H19        -1.6715   -0.3724   -2.0074 H         1 <0>         0.4422
     39 H20        -3.0904   -0.3963   -1.1701 H         1 <0>         0.4409
@<TRIPOS>BOND
     1    1    2 1
     2    1   21 1
     3    1   22 1
     4    1   23 1
     5    2    3 1
     6    2    4 1
     7    2   24 1
     8    3   25 1
     9    3   26 1
    10    3   27 1
    11    4    5 1
    12    4    6 1
    13    4   20 1
    14    6    7 2
    15    6    8 am
    16    8    9 1
    17    8   28 1
    18    9   10 1
    19    9   29 1
    20    9   30 1
    21   10   11 1
    22   10   31 1
    23   10   32 1
    24   11   16 ar
    25   11   12 ar
    26   12   13 ar
    27   12   33 1
    28   13   14 ar
    29   13   34 1
    30   14   15 ar
    31   14   17 1
    32   15   16 ar
    33   15   35 1
    34   16   36 1
    35   17   18 2
    36   17   19 1
    37   20   37 1
    38   20   38 1
    39   20   39 1
@<TRIPOS>MOLECULE
ZINC42559661
   39    39     0     0     0
SMALL
USER_CHARGES

@<TRIPOS>ATOM
      1 C1         -0.0187    1.5258    0.0104 C.3       1 <0>        -0.1545
      2 C2          0.0021   -0.0041    0.0020 C.3       1 <0>        -0.1226
      3 C3         -1.4333   -0.5336    0.0129 C.3       1 <0>        -0.0936
      4 H1         -1.9701   -0.1109    0.8621 H         1 <0>         0.0773
      5 C4         -2.1352   -0.1312   -1.2857 C.3       1 <0>        -0.1529
      6 C5         -1.4133   -2.0590    0.1302 C.3       1 <0>         0.1504
      7 H2         -0.8764   -2.4817   -0.7190 H         1 <0>         0.0920
      8 C6         -0.7113   -2.4614    1.4288 C.3       1 <0>        -0.1790
      9 N1         -2.7877   -2.5661    0.1406 N.pl3     1 <0>        -1.1126
     10 S1         -3.1415   -4.0140   -0.5809 S.o2      1 <0>         2.6963
     11 O1         -4.5303   -4.2388   -0.3809 O.2       1 <0>        -0.9642
     12 O2         -2.5542   -3.9775   -1.8743 O.2       1 <0>        -0.9608
     13 C7         -2.2933   -5.2670    0.3221 C.ar      1 <0>        -0.7308
     14 C8         -1.0083   -5.6279   -0.0396 C.ar      1 <0>         0.0276
     15 C9         -0.3407   -6.6096    0.6660 C.ar      1 <0>        -0.2145
     16 C10        -0.9614   -7.2347    1.7400 C.ar      1 <0>         0.2727
     17 C11        -2.2524   -6.8698    2.1006 C.ar      1 <0>        -0.2046
     18 C12        -2.9121   -5.8834    1.3942 C.ar      1 <0>         0.0281
     19 N2         -0.2893   -8.2283    2.4555 N.pl3     1 <0>        -0.5879
     20 N3         -0.9012   -8.8420    3.5114 N.3       1 <0>        -0.6055
     21 H3          1.0039    1.9031    0.0027 H         1 <0>         0.0542
     22 H4         -0.5459    1.8868   -0.8726 H         1 <0>         0.0577
     23 H5         -0.5289    1.8773    0.9072 H         1 <0>         0.0534
     24 H6          0.5123   -0.3556   -0.8948 H         1 <0>         0.0656
     25 H7          0.5293   -0.3651    0.8851 H         1 <0>         0.0681
     26 H8         -1.5984   -0.5539   -2.1349 H         1 <0>         0.0593
     27 H9         -3.1578   -0.5085   -1.2779 H         1 <0>         0.0563
     28 H10        -2.1495    0.9555   -1.3693 H         1 <0>         0.0595
     29 H11        -1.2482   -2.0387    2.2780 H         1 <0>         0.0631
     30 H12        -0.6971   -3.5481    1.5124 H         1 <0>         0.0625
     31 H13         0.3113   -2.0842    1.4210 H         1 <0>         0.0717
     32 H14        -3.4904   -2.0537    0.5701 H         1 <0>         0.4175
     33 H15        -0.5264   -5.1417   -0.8749 H         1 <0>         0.1387
     34 H16         0.6628   -6.8912    0.3828 H         1 <0>         0.1300
     35 H17        -2.7380   -7.3541    2.9348 H         1 <0>         0.1350
     36 H18        -3.9142   -5.5961    1.6767 H         1 <0>         0.1384
     37 H19         0.6120   -8.4825    2.2026 H         1 <0>         0.4071
     38 H20        -0.2961   -9.5339    3.9276 H         1 <0>         0.3621
     39 H21        -1.2031   -8.1662    4.1970 H         1 <0>         0.3388
@<TRIPOS>BOND
     1    1    2 1
     2    1   21 1
     3    1   22 1
     4    1   23 1
     5    2    3 1
     6    2   24 1
     7    2   25 1
     8    3    4 1
     9    3    5 1
    10    3    6 1
    11    5   26 1
    12    5   27 1
    13    5   28 1
    14    6    7 1
    15    6    8 1
    16    6    9 1
    17    8   29 1
    18    8   30 1
    19    8   31 1
    20    9   10 1
    21    9   32 1
    22   10   11 2
    23   10   12 2
    24   10   13 1
    25   13   18 ar
    26   13   14 ar
    27   14   15 ar
    28   14   33 1
    29   15   16 ar
    30   15   34 1
    31   16   17 ar
    32   16   19 1
    33   17   18 ar
    34   17   35 1
    35   18   36 1
    36   19   20 1
    37   19   37 1
    38   20   38 1
    39   20   39 1
@<TRIPOS>MOLECULE
ZINC08140301
   46    46     0     0     0
SMALL
USER_CHARGES

@<TRIPOS>ATOM
      1 C1         -0.0187    1.5258    0.0104 C.3       1 <0>        -0.1482
      2 C2          0.0021   -0.0041    0.0020 C.3       1 <0>        -0.0982
      3 H1         -1.0205   -0.3814    0.0098 H         1 <0>         0.0749
      4 C3          0.7182   -0.4975   -1.2568 C.3       1 <0>        -0.1123
      5 C4          0.7390   -2.0273   -1.2652 C.3       1 <0>        -0.1226
      6 C5          1.4790   -2.5342   -0.0257 C.3       1 <0>        -0.1178
      7 C6          0.7628   -2.0407    1.2331 C.3       1 <0>        -0.1291
      8 C7          0.7421   -0.5109    1.2415 C.3       1 <0>         0.1498
      9 H2          1.7647   -0.1336    1.2338 H         1 <0>         0.0875
     10 N1          0.0564   -0.0384    2.4469 N.am      1 <0>        -0.7287
     11 C8          0.7380    0.0932    3.6021 C.2       1 <0>         0.5121
     12 O1          1.9190   -0.1795    3.6438 O.2       1 <0>        -0.5390
     13 C9          0.0326    0.5792    4.8420 C.3       1 <0>        -0.1423
     14 C10         1.0260    0.6377    6.0041 C.3       1 <0>        -0.1032
     15 C11         0.3099    1.1312    7.2629 C.3       1 <0>        -0.1170
     16 C12         1.3034    1.1897    8.4250 C.3       1 <0>        -0.1314
     17 C13         0.5872    1.6831    9.6838 C.3       1 <0>         0.1356
     18 N2          1.5385    1.7392   10.7965 N.am      1 <0>        -0.7470
     19 C14         1.1286    2.1484   12.0135 C.2       1 <0>         0.7035
     20 O2         -0.0306    2.4711   12.1879 O.2       1 <0>        -0.5946
     21 N3          2.0038    2.2000   13.0372 N.am      1 <0>        -0.8684
     22 H3          1.0039    1.9031    0.0027 H         1 <0>         0.0559
     23 H4         -0.5459    1.8868   -0.8726 H         1 <0>         0.0580
     24 H5         -0.5289    1.8773    0.9072 H         1 <0>         0.0551
     25 H6          0.1910   -0.1364   -2.1398 H         1 <0>         0.0679
     26 H7          1.7408   -0.1202   -1.2645 H         1 <0>         0.0654
     27 H8         -0.2836   -2.4046   -1.2575 H         1 <0>         0.0626
     28 H9          1.2492   -2.3788   -2.1620 H         1 <0>         0.0649
     29 H10         1.4937   -3.6240   -0.0317 H         1 <0>         0.0651
     30 H11         2.5015   -2.1569   -0.0334 H         1 <0>         0.0643
     31 H12        -0.2598   -2.4180    1.2409 H         1 <0>         0.0628
     32 H13         1.2900   -2.4018    2.1162 H         1 <0>         0.0669
     33 H14        -0.8882    0.1796    2.4135 H         1 <0>         0.3993
     34 H15        -0.3749    1.5740    4.6618 H         1 <0>         0.0936
     35 H16        -0.7779   -0.1058    5.0910 H         1 <0>         0.0936
     36 H17         1.4335   -0.3571    6.1842 H         1 <0>         0.0705
     37 H18         1.8365    1.3227    5.7551 H         1 <0>         0.0706
     38 H19        -0.0976    2.1259    7.0828 H         1 <0>         0.0676
     39 H20        -0.5006    0.4462    7.5119 H         1 <0>         0.0676
     40 H21         1.7108    0.1949    8.6051 H         1 <0>         0.0706
     41 H22         2.1138    1.8747    8.1760 H         1 <0>         0.0706
     42 H23         0.1798    2.6779    9.5037 H         1 <0>         0.0669
     43 H24        -0.2232    0.9981    9.9328 H         1 <0>         0.0669
     44 H25         2.4633    1.4818   10.6574 H         1 <0>         0.3971
     45 H26         2.9286    1.9426   12.8981 H         1 <0>         0.3970
     46 H27         1.7088    2.4946   13.9131 H         1 <0>         0.4156
@<TRIPOS>BOND
     1    1    2 1
     2    1   22 1
     3    1   23 1
     4    1   24 1
     5    2    3 1
     6    2    8 1
     7    2    4 1
     8    4    5 1
     9    4   25 1
    10    4   26 1
    11    5    6 1
    12    5   27 1
    13    5   28 1
    14    6    7 1
    15    6   29 1
    16    6   30 1
    17    7    8 1
    18    7   31 1
    19    7   32 1
    20    8    9 1
    21    8   10 1
    22   10   11 am
    23   10   33 1
    24   11   12 2
    25   11   13 1
    26   13   14 1
    27   13   34 1
    28   13   35 1
    29   14   15 1
    30   14   36 1
    31   14   37 1
    32   15   16 1
    33   15   38 1
    34   15   39 1
    35   16   17 1
    36   16   40 1
    37   16   41 1
    38   17   18 1
    39   17   42 1
    40   17   43 1
    41   18   19 am
    42   18   44 1
    43   19   20 2
    44   19   21 am
    45   21   45 1
    46   21   46 1
@<TRIPOS>MOLECULE
ZINC51667735
   38    38     0     0     0
SMALL
USER_CHARGES

@<TRIPOS>ATOM
      1 C1         -0.0187    1.5258    0.0104 C.3       1 <0>        -0.1486
      2 C2          0.0021   -0.0041    0.0020 C.3       1 <0>        -0.0957
      3 C3          0.7182   -0.4975   -1.2568 C.3       1 <0>        -0.1471
      4 C4          0.7421   -0.5109    1.2415 C.3       1 <0>         0.0888
      5 O1          0.0101   -0.1492    2.4144 O.3       1 <0>        -0.3628
      6 C5          0.5297   -0.5233    3.5988 C.2       1 <0>         0.6474
      7 O2          1.5760   -1.1401    3.6356 O.2       1 <0>        -0.5696
      8 N1         -0.1107   -0.2138    4.7435 N.am      1 <0>        -0.7066
      9 C6          0.4546   -0.6209    6.0323 C.3       1 <0>         0.1771
     10 C7         -0.4476   -0.1557    7.1461 C.ar      1 <0>        -0.0957
     11 C8         -0.2567    1.0924    7.7115 C.ar      1 <0>        -0.0976
     12 C9         -1.0796    1.5240    8.7316 C.ar      1 <0>        -0.0720
     13 C10        -2.1054    0.6991    9.1925 C.ar      1 <0>        -0.0384
     14 C11        -2.2928   -0.5581    8.6184 C.ar      1 <0>        -0.0955
     15 C12        -1.4670   -0.9761    7.5951 C.ar      1 <0>        -0.0961
     16 C13        -2.9915    1.1559   10.2870 C.2       1 <0>         0.4081
     17 N2         -2.8141    2.3286   10.8208 N.2       1 <0>        -0.4134
     18 O3         -3.6616    2.7656   11.8677 O.3       1 <0>        -0.4210
     19 N3         -4.0091    0.3347   10.7425 N.pl3     1 <0>        -0.8693
     20 H1          1.0039    1.9031    0.0027 H         1 <0>         0.0553
     21 H2         -0.5459    1.8868   -0.8726 H         1 <0>         0.0587
     22 H3         -0.5289    1.8773    0.9072 H         1 <0>         0.0610
     23 H4         -1.0205   -0.3814    0.0098 H         1 <0>         0.0820
     24 H5          1.7408   -0.1202   -1.2645 H         1 <0>         0.0597
     25 H6          0.7330   -1.5874   -1.2628 H         1 <0>         0.0594
     26 H7          0.1910   -0.1364   -2.1398 H         1 <0>         0.0667
     27 H8          0.8346   -1.5958    1.1912 H         1 <0>         0.0688
     28 H9          1.7350   -0.0630    1.2804 H         1 <0>         0.0693
     29 H10        -0.9459    0.2786    4.7141 H         1 <0>         0.4092
     30 H11         0.5410   -1.7070    6.0643 H         1 <0>         0.0838
     31 H12         1.4415   -0.1741    6.1535 H         1 <0>         0.0843
     32 H13         0.5382    1.7301    7.3540 H         1 <0>         0.1347
     33 H14        -0.9293    2.4984    9.1725 H         1 <0>         0.1419
     34 H15        -3.0853   -1.2014    8.9713 H         1 <0>         0.1294
     35 H16        -1.6141   -1.9475    7.1465 H         1 <0>         0.1342
     36 H17        -3.4526    3.6493   12.2000 H         1 <0>         0.4026
     37 H18        -4.1414   -0.5399   10.3444 H         1 <0>         0.3967
     38 H19        -4.5897    0.6340   11.4596 H         1 <0>         0.4103
@<TRIPOS>BOND
     1    1    2 1
     2    1   20 1
     3    1   21 1
     4    1   22 1
     5    2    3 1
     6    2    4 1
     7    2   23 1
     8    3   24 1
     9    3   25 1
    10    3   26 1
    11    4    5 1
    12    4   27 1
    13    4   28 1
    14    5    6 1
    15    6    7 2
    16    6    8 am
    17    8    9 1
    18    8   29 1
    19    9   10 1
    20    9   30 1
    21    9   31 1
    22   10   15 ar
    23   10   11 ar
    24   11   12 ar
    25   11   32 1
    26   12   13 ar
    27   12   33 1
    28   13   14 ar
    29   13   16 1
    30   14   15 ar
    31   14   34 1
    32   15   35 1
    33   16   17 2
    34   16   19 1
    35   17   18 1
    36   18   36 1
    37   19   37 1
    38   19   38 1
@<TRIPOS>MOLECULE
ZINC66442931
   44    44     0     0     0
SMALL
USER_CHARGES

@<TRIPOS>ATOM
      1 C1         -0.0187    1.5258    0.0104 C.3       1 <0>        -0.1400
      2 C2          0.0021   -0.0041    0.0020 C.3       1 <0>        -0.0773
      3 C3          0.7833   -0.5152   -1.2261 C.3       1 <0>        -0.1171
      4 C4          2.2135   -0.7684   -0.6880 C.3       1 <0>        -0.1246
      5 C5          1.9501   -1.3392    0.7276 C.3       1 <0>        -0.1254
      6 C6          0.7439   -0.5280    1.2442 C.3       1 <0>        -0.1145
      7 C7         -1.4281   -0.5471   -0.0221 C.3       1 <0>         0.1345
      8 N1         -2.1174   -0.0544   -1.2173 N.am      1 <0>        -0.7302
      9 C8         -3.3975   -0.4059   -1.4499 C.2       1 <0>         0.4982
     10 O1         -3.9789   -1.1302   -0.6699 O.2       1 <0>        -0.4992
     11 C9         -4.1066    0.1009   -2.6793 C.3       1 <0>         0.1615
     12 H1         -3.4214    0.0840   -3.5269 H         1 <0>         0.1102
     13 C10        -4.5842    1.5343   -2.4381 C.3       1 <0>        -0.1193
     14 C11        -5.1929    2.0926   -3.7260 C.3       1 <0>        -0.0787
     15 S1         -5.7591    3.7921   -3.4400 S.3       1 <0>        -0.2595
     16 C12        -6.4447    4.3014   -5.0404 C.3       1 <0>        -0.1214
     17 N2         -5.2596   -0.7562   -2.9663 N.am      1 <0>        -0.7363
     18 C13        -6.2434   -0.8898   -2.0548 C.2       1 <0>         0.7104
     19 O2         -6.1740   -0.2990   -0.9944 O.2       1 <0>        -0.5610
     20 N3         -7.3041   -1.6782   -2.3188 N.am      1 <0>        -0.8693
     21 H2          1.0039    1.9031    0.0027 H         1 <0>         0.0604
     22 H3         -0.5459    1.8868   -0.8726 H         1 <0>         0.0540
     23 H4         -0.5289    1.8773    0.9072 H         1 <0>         0.0589
     24 H5          0.3460   -1.4418   -1.5978 H         1 <0>         0.0683
     25 H6          0.7992    0.2417   -2.0102 H         1 <0>         0.0663
     26 H7          2.7358   -1.4975   -1.3075 H         1 <0>         0.0659
     27 H8          2.7752    0.1639   -0.6302 H         1 <0>         0.0672
     28 H9          1.7011   -2.3989    0.6713 H         1 <0>         0.0654
     29 H10         2.8174   -1.1837    1.3691 H         1 <0>         0.0660
     30 H11         1.0891    0.3076    1.8530 H         1 <0>         0.0701
     31 H12         0.0853   -1.1698    1.8293 H         1 <0>         0.0678
     32 H13        -1.4028   -1.6367   -0.0406 H         1 <0>         0.0666
     33 H14        -1.9595   -0.2110    0.8682 H         1 <0>         0.0673
     34 H15        -1.6525    0.5249   -1.8411 H         1 <0>         0.3976
     35 H16        -5.3362    1.5388   -1.6491 H         1 <0>         0.1078
     36 H17        -3.7387    2.1533   -2.1378 H         1 <0>         0.0841
     37 H18        -4.4409    2.0881   -4.5150 H         1 <0>         0.0803
     38 H19        -6.0384    1.4736   -4.0263 H         1 <0>         0.0813
     39 H20        -6.8157    5.3237   -4.9679 H         1 <0>         0.1030
     40 H21        -5.6664    4.2505   -5.8018 H         1 <0>         0.0762
     41 H22        -7.2638    3.6360   -5.3131 H         1 <0>         0.0756
     42 H23        -5.3149   -1.2275   -3.8123 H         1 <0>         0.4001
     43 H24        -7.3594   -2.1496   -3.1648 H         1 <0>         0.3935
     44 H25        -8.0121   -1.7744   -1.6628 H         1 <0>         0.4154
@<TRIPOS>BOND
     1    1    2 1
     2    1   21 1
     3    1   22 1
     4    1   23 1
     5    2    6 1
     6    2    3 1
     7    2    7 1
     8    3    4 1
     9    3   24 1
    10    3   25 1
    11    4    5 1
    12    4   26 1
    13    4   27 1
    14    5    6 1
    15    5   28 1
    16    5   29 1
    17    6   30 1
    18    6   31 1
    19    7    8 1
    20    7   32 1
    21    7   33 1
    22    8    9 am
    23    8   34 1
    24    9   10 2
    25    9   11 1
    26   11   12 1
    27   11   13 1
    28   11   17 1
    29   13   14 1
    30   13   35 1
    31   13   36 1
    32   14   15 1
    33   14   37 1
    34   14   38 1
    35   15   16 1
    36   16   39 1
    37   16   40 1
    38   16   41 1
    39   17   18 am
    40   17   42 1
    41   18   19 2
    42   18   20 am
    43   20   43 1
    44   20   44 1
@<TRIPOS>MOLECULE
ZINC40376815
   35    35     0     0     0
SMALL
USER_CHARGES

@<TRIPOS>ATOM
      1 C1         -0.0187    1.5258    0.0104 C.3       1 <0>        -0.1535
      2 C2          0.0021   -0.0041    0.0020 C.3       1 <0>        -0.1254
      3 C3         -1.4333   -0.5336    0.0129 C.3       1 <0>        -0.1225
      4 C4         -1.4126   -2.0635    0.0045 C.3       1 <0>         0.2182
      5 H1         -0.8263   -2.4142   -0.8449 H         1 <0>         0.1157
      6 C5         -2.8221   -2.5844   -0.1087 C.2       1 <0>         0.3477
      7 N1         -3.1337   -3.4038   -1.0576 N.2       1 <0>        -0.4001
      8 O1         -4.4582   -3.8932   -1.1639 O.3       1 <0>        -0.4235
      9 N2         -3.7782   -2.1868    0.7994 N.pl3     1 <0>        -0.8661
     10 N3         -0.8103   -2.5505    1.2480 N.pl3     1 <0>        -1.1070
     11 S1          0.1183   -3.9216    1.2367 S.o2      1 <0>         2.6871
     12 O2          0.5735   -4.1148    2.5689 O.2       1 <0>        -0.9541
     13 O3         -0.6241   -4.9092    0.5346 O.2       1 <0>        -0.9379
     14 C6          1.5450   -3.5765    0.2620 C.ar      1 <0>        -0.6775
     15 C7          1.5271   -3.8177   -1.0990 C.ar      1 <0>        -0.0224
     16 C8          2.6464   -3.5470   -1.8637 C.ar      1 <0>        -0.1381
     17 C9          3.7835   -3.0346   -1.2674 C.ar      1 <0>        -0.0608
     18 C10         3.8011   -2.7926    0.0935 C.ar      1 <0>        -0.1393
     19 C11         2.6803   -3.0593    0.8575 C.ar      1 <0>        -0.0185
     20 H2          1.0039    1.9031    0.0027 H         1 <0>         0.0571
     21 H3         -0.5459    1.8868   -0.8726 H         1 <0>         0.0560
     22 H4         -0.5289    1.8773    0.9072 H         1 <0>         0.0558
     23 H5          0.5123   -0.3556   -0.8948 H         1 <0>         0.0669
     24 H6          0.5293   -0.3651    0.8851 H         1 <0>         0.0681
     25 H7         -1.9435   -0.1821    0.9097 H         1 <0>         0.0779
     26 H8         -1.9605   -0.1726   -0.8702 H         1 <0>         0.0873
     27 H9         -4.5950   -4.4999   -1.9044 H         1 <0>         0.4014
     28 H10        -3.5442   -1.5716    1.5119 H         1 <0>         0.3946
     29 H11        -4.6854   -2.5221    0.7266 H         1 <0>         0.4080
     30 H12        -0.9555   -2.0699    2.0779 H         1 <0>         0.4220
     31 H13         0.6388   -4.2180   -1.5649 H         1 <0>         0.1426
     32 H14         2.6327   -3.7360   -2.9269 H         1 <0>         0.1346
     33 H15         4.6582   -2.8238   -1.8647 H         1 <0>         0.1320
     34 H16         4.6895   -2.3927    0.5594 H         1 <0>         0.1338
     35 H17         2.6928   -2.8668    1.9201 H         1 <0>         0.1399
@<TRIPOS>BOND
     1    1    2 1
     2    1   20 1
     3    1   21 1
     4    1   22 1
     5    2    3 1
     6    2   23 1
     7    2   24 1
     8    3    4 1
     9    3   25 1
    10    3   26 1
    11    4    5 1
    12    4    6 1
    13    4   10 1
    14    6    7 2
    15    6    9 1
    16    7    8 1
    17    8   27 1
    18    9   28 1
    19    9   29 1
    20   10   11 1
    21   10   30 1
    22   11   12 2
    23   11   13 2
    24   11   14 1
    25   14   19 ar
    26   14   15 ar
    27   15   16 ar
    28   15   31 1
    29   16   17 ar
    30   16   32 1
    31   17   18 ar
    32   17   33 1
    33   18   19 ar
    34   18   34 1
    35   19   35 1
@<TRIPOS>MOLECULE
ZINC44878315
   46    45     0     0     0
SMALL
USER_CHARGES

@<TRIPOS>ATOM
      1 C1         -3.9827    2.4633    2.3490 C.3       1 <0>        -0.1520
      2 C2         -4.6330    1.2867    1.6185 C.3       1 <0>        -0.1320
      3 C3         -3.5462    0.3295    1.1248 C.3       1 <0>        -0.0982
      4 C4         -4.1964   -0.8471    0.3942 C.3       1 <0>        -0.0546
      5 H1         -4.9286   -1.3209    1.0481 H         1 <0>         0.1131
      6 C5         -4.8835   -0.3477   -0.8506 C.2       1 <0>         0.3765
      7 N1         -4.2626   -0.3678   -1.9833 N.2       1 <0>        -0.3997
      8 O1         -4.8641    0.2037   -3.1307 O.3       1 <0>        -0.4252
      9 N2         -6.1733    0.1300   -0.7808 N.pl3     1 <0>        -0.8682
     10 C6         -3.1376   -1.8503    0.0155 C.2       1 <0>         0.5377
     11 O2         -1.9642   -1.5613    0.1178 O.2       1 <0>        -0.5160
     12 N3         -3.4946   -3.0687   -0.4368 N.am      1 <0>        -0.5890
     13 C7         -4.9065   -3.4591   -0.4534 C.3       1 <0>         0.1071
     14 C8         -5.5008   -3.1649   -1.8323 C.3       1 <0>         0.0390
     15 O3         -4.9029   -4.0269   -2.8025 O.3       1 <0>        -0.5596
     16 C9         -2.4708   -4.0027   -0.9118 C.3       1 <0>         0.1624
     17 C10        -1.6159   -3.3211   -1.9821 C.3       1 <0>        -0.1404
     18 C11        -2.4738   -3.0402   -3.2174 C.3       1 <0>        -0.1452
     19 C12        -1.5812   -4.4234    0.2598 C.3       1 <0>        -0.1450
     20 C13        -2.4180   -5.1905    1.2856 C.3       1 <0>        -0.1470
     21 H2         -4.7569    3.1452    2.7007 H         1 <0>         0.0559
     22 H3         -3.4117    2.0919    3.2000 H         1 <0>         0.0568
     23 H4         -3.3163    2.9911    1.6668 H         1 <0>         0.0555
     24 H5         -5.2994    0.7589    2.3007 H         1 <0>         0.0634
     25 H6         -5.2040    1.6581    0.7675 H         1 <0>         0.0667
     26 H7         -2.8798    0.8573    0.4425 H         1 <0>         0.0805
     27 H8         -2.9752   -0.0419    1.9757 H         1 <0>         0.0842
     28 H9         -4.3242    0.1408   -3.9305 H         1 <0>         0.4010
     29 H10        -6.6395    0.1451    0.0697 H         1 <0>         0.3972
     30 H11        -6.6155    0.4514   -1.5821 H         1 <0>         0.4089
     31 H12        -4.9914   -4.5248   -0.2411 H         1 <0>         0.0873
     32 H13        -5.4489   -2.8934    0.3042 H         1 <0>         0.0863
     33 H14        -6.5770   -3.3362   -1.8082 H         1 <0>         0.0440
     34 H15        -5.3041   -2.1264   -2.0986 H         1 <0>         0.0724
     35 H16        -5.2329   -3.8956   -3.7019 H         1 <0>         0.3755
     36 H17        -2.9517   -4.8834   -1.3374 H         1 <0>         0.0901
     37 H18        -1.2240   -2.3823   -1.5907 H         1 <0>         0.0855
     38 H19        -0.7875   -3.9746   -2.2560 H         1 <0>         0.0603
     39 H20        -2.8932   -3.9752   -3.5888 H         1 <0>         0.0559
     40 H21        -3.2825   -2.3597   -2.9511 H         1 <0>         0.0721
     41 H22        -1.8568   -2.5855   -3.9925 H         1 <0>         0.0345
     42 H23        -0.7779   -5.0633   -0.1054 H         1 <0>         0.0689
     43 H24        -1.1547   -3.5367    0.7289 H         1 <0>         0.0807
     44 H25        -1.7843   -5.4902    2.1203 H         1 <0>         0.0527
     45 H26        -3.2213   -4.5506    1.6508 H         1 <0>         0.0495
     46 H27        -2.8445   -6.0772    0.8166 H         1 <0>         0.0507
@<TRIPOS>BOND
     1    1    2 1
     2    1   21 1
     3    1   22 1
     4    1   23 1
     5    2    3 1
     6    2   24 1
     7    2   25 1
     8    3    4 1
     9    3   26 1
    10    3   27 1
    11    4    5 1
    12    4    6 1
    13    4   10 1
    14    6    7 2
    15    6    9 1
    16    7    8 1
    17    8   28 1
    18    9   29 1
    19    9   30 1
    20   10   11 2
    21   10   12 am
    22   12   13 1
    23   12   16 1
    24   13   14 1
    25   13   31 1
    26   13   32 1
    27   14   15 1
    28   14   33 1
    29   14   34 1
    30   15   35 1
    31   16   17 1
    32   16   19 1
    33   16   36 1
    34   17   18 1
    35   17   37 1
    36   17   38 1
    37   18   39 1
    38   18   40 1
    39   18   41 1
    40   19   20 1
    41   19   42 1
    42   19   43 1
    43   20   44 1
    44   20   45 1
    45   20   46 1
@<TRIPOS>MOLECULE
ZINC48841314
   41    41     0     0     0
SMALL
USER_CHARGES

@<TRIPOS>ATOM
      1 C1          0.0439    1.5274    0.0437 C.3       1 <0>        -0.1898
      2 C2          0.0516   -0.0025    0.0284 C.3       1 <0>        -0.0103
      3 N1          0.7359   -0.4766   -1.1820 N.4       1 <0>        -0.5091
      4 C3          0.7433   -1.9455   -1.1967 C.3       1 <0>        -0.0062
      5 C4          1.4561   -2.4392   -2.4573 C.3       1 <0>        -0.1620
      6 C5          1.4638   -3.9692   -2.4727 C.3       1 <0>         0.1419
      7 N2          2.1463   -4.4419   -3.6797 N.am      1 <0>        -0.7527
      8 C6          2.2742   -5.7642   -3.9074 C.2       1 <0>         0.6957
      9 O1          1.8232   -6.5646   -3.1110 O.2       1 <0>        -0.5469
     10 N3          2.9021   -6.1991   -5.0178 N.am      1 <0>        -0.6732
     11 C7          3.1392   -7.5670   -5.1974 C.ar      1 <0>         0.1289
     12 C8          3.2216   -8.4061   -4.0975 C.ar      1 <0>        -0.0883
     13 C9          3.4578   -9.7696   -4.2822 C.ar      1 <0>        -0.1174
     14 C10         3.6094  -10.2783   -5.5750 C.ar      1 <0>        -0.0944
     15 C11         3.5254   -9.4336   -6.6623 C.ar      1 <0>        -0.1185
     16 C12         3.2861   -8.0841   -6.4789 C.ar      1 <0>        -0.1293
     17 C13         3.1897   -7.1697   -7.6729 C.3       1 <0>        -0.1043
     18 C14         3.5476  -10.6702   -3.1168 C.2       1 <0>         0.5195
     19 O2          3.4150  -10.2225   -1.9865 O.co2     1 <0>        -0.6845
     20 O3          3.7546  -11.8642   -3.2812 O.co2     1 <0>        -0.6841
     21 H1          1.0697    1.8960    0.0384 H         1 <0>         0.0802
     22 H2         -0.4796    1.8970   -0.8380 H         1 <0>         0.0799
     23 H3         -0.4639    1.8792    0.9418 H         1 <0>         0.1064
     24 H4          0.5751   -0.3721    0.9101 H         1 <0>         0.1323
     25 H5         -0.9742   -0.3711    0.0337 H         1 <0>         0.1318
     26 H6          0.2514   -0.1344   -1.9982 H         1 <0>         0.4274
     27 H7          1.2668   -2.3151   -0.3150 H         1 <0>         0.1382
     28 H8         -0.2824   -2.3141   -1.1914 H         1 <0>         0.1373
     29 H9          0.9326   -2.0697   -3.3391 H         1 <0>         0.0933
     30 H10         2.4819   -2.0707   -2.4627 H         1 <0>         0.0943
     31 H11         1.9873   -4.3387   -1.5909 H         1 <0>         0.0796
     32 H12         0.4380   -4.3377   -2.4673 H         1 <0>         0.0775
     33 H13         2.5061   -3.8034   -4.3150 H         1 <0>         0.3952
     34 H14         3.1897   -5.5643   -5.6925 H         1 <0>         0.4004
     35 H15         3.1040   -8.0066   -3.1010 H         1 <0>         0.1501
     36 H16         3.7926  -11.3323   -5.7227 H         1 <0>         0.1293
     37 H17         3.6431   -9.8284   -7.6607 H         1 <0>         0.1199
     38 H18         4.1789   -6.7801   -7.9130 H         1 <0>         0.0634
     39 H19         2.8014   -7.7260   -8.5261 H         1 <0>         0.0676
     40 H20         2.5189   -6.3418   -7.4433 H         1 <0>         0.0527
     41 H21         1.6855   -0.1354   -1.1869 H         1 <0>         0.4280
@<TRIPOS>BOND
     1    1    2 1
     2    1   21 1
     3    1   22 1
     4    1   23 1
     5    2    3 1
     6    2   24 1
     7    2   25 1
     8    3    4 1
     9    3   26 1
    10    3   41 1
    11    4    5 1
    12    4   27 1
    13    4   28 1
    14    5    6 1
    15    5   29 1
    16    5   30 1
    17    6    7 1
    18    6   31 1
    19    6   32 1
    20    7    8 am
    21    7   33 1
    22    8    9 2
    23    8   10 am
    24   10   11 1
    25   10   34 1
    26   11   16 ar
    27   11   12 ar
    28   12   13 ar
    29   12   35 1
    30   13   14 ar
    31   13   18 1
    32   14   15 ar
    33   14   36 1
    34   15   16 ar
    35   15   37 1
    36   16   17 1
    37   17   38 1
    38   17   39 1
    39   17   40 1
    40   18   19 2
    41   18   20 1
@<TRIPOS>MOLECULE
ZINC61525053
   47    47     0     0     0
SMALL
USER_CHARGES

@<TRIPOS>ATOM
      1 C1         -0.0188    1.5384    0.0105 C.3       1 <0>        -0.1229
      2 C2          1.4774    1.9387   -0.0016 C.3       1 <0>        -0.1255
      3 C3          2.1065    0.8811   -0.9423 C.3       1 <0>        -0.1224
      4 C4          1.3534   -0.4220   -0.6038 C.3       1 <0>         0.0844
      5 C5          0.0021   -0.0041    0.0020 C.3       1 <0>        -0.1494
      6 O1          1.1415   -1.1876   -1.7916 O.3       1 <0>        -0.3805
      7 C6          1.0985   -2.5992   -1.5734 C.3       1 <0>         0.0645
      8 C7          0.8683   -3.3145   -2.9061 C.3       1 <0>        -0.1303
      9 C8          0.8223   -4.8259   -2.6725 C.3       1 <0>         0.1206
     10 N1          0.6019   -5.5108   -3.9486 N.am      1 <0>        -0.7335
     11 C9          0.5253   -6.8559   -3.9870 C.2       1 <0>         0.5109
     12 O2          0.6389   -7.4992   -2.9652 O.2       1 <0>        -0.5364
     13 C10         0.2986   -7.5605   -5.2998 C.3       1 <0>        -0.1392
     14 C11         0.2526   -9.0718   -5.0661 C.3       1 <0>        -0.1026
     15 C12         0.0224   -9.7871   -6.3988 C.3       1 <0>        -0.1309
     16 C13        -0.0236  -11.2985   -6.1652 C.3       1 <0>         0.1351
     17 N2         -0.2440  -11.9834   -7.4413 N.am      1 <0>        -0.7470
     18 C14        -0.3206  -13.3285   -7.4798 C.2       1 <0>         0.7030
     19 O3         -0.2067  -13.9734   -6.4553 O.2       1 <0>        -0.5929
     20 N3         -0.5233  -13.9586   -8.6538 N.am      1 <0>        -0.8684
     21 H1         -0.5054    1.9084    0.9130 H         1 <0>         0.0667
     22 H2         -0.5225    1.9180   -0.8785 H         1 <0>         0.0680
     23 H3          1.6056    2.9420   -0.4079 H         1 <0>         0.0717
     24 H4          1.9042    1.8684    0.9989 H         1 <0>         0.0689
     25 H5          1.9461    1.1545   -1.9852 H         1 <0>         0.0792
     26 H6          3.1710    0.7713   -0.7351 H         1 <0>         0.0708
     27 H7          1.9228   -1.0050    0.1201 H         1 <0>         0.0640
     28 H8         -0.0844   -0.3843    1.0199 H         1 <0>         0.0672
     29 H9         -0.8154   -0.3852   -0.6101 H         1 <0>         0.0741
     30 H10         2.0437   -2.9292   -1.1424 H         1 <0>         0.0526
     31 H11         0.2844   -2.8363   -0.8884 H         1 <0>         0.0522
     32 H12        -0.0769   -2.9846   -3.3371 H         1 <0>         0.0784
     33 H13         1.6824   -3.0774   -3.5911 H         1 <0>         0.0785
     34 H14         1.7675   -5.1559   -2.2415 H         1 <0>         0.0700
     35 H15         0.0082   -5.0630   -1.9875 H         1 <0>         0.0700
     36 H16         0.5111   -4.9963   -4.7658 H         1 <0>         0.4023
     37 H17        -0.6466   -7.2305   -5.7307 H         1 <0>         0.0952
     38 H18         1.1127   -7.3233   -5.9847 H         1 <0>         0.0952
     39 H19         1.1978   -9.4018   -4.6351 H         1 <0>         0.0754
     40 H20        -0.5615   -9.3089   -4.3811 H         1 <0>         0.0754
     41 H21        -0.9228   -9.4572   -6.8298 H         1 <0>         0.0707
     42 H22         0.8365   -9.5500   -7.0838 H         1 <0>         0.0707
     43 H23         0.9216  -11.6285   -5.7342 H         1 <0>         0.0687
     44 H24        -0.8377  -11.5356   -5.4802 H         1 <0>         0.0687
     45 H25        -0.3348  -11.4689   -8.2586 H         1 <0>         0.3963
     46 H26        -0.6141  -13.4441   -9.4710 H         1 <0>         0.3966
     47 H27        -0.5784  -14.9266   -8.6815 H         1 <0>         0.4157
@<TRIPOS>BOND
     1    1    5 1
     2    1    2 1
     3    1   21 1
     4    1   22 1
     5    2    3 1
     6    2   23 1
     7    2   24 1
     8    3    4 1
     9    3   25 1
    10    3   26 1
    11    4    5 1
    12    4    6 1
    13    4   27 1
    14    5   28 1
    15    5   29 1
    16    6    7 1
    17    7    8 1
    18    7   30 1
    19    7   31 1
    20    8    9 1
    21    8   32 1
    22    8   33 1
    23    9   10 1
    24    9   34 1
    25    9   35 1
    26   10   11 am
    27   10   36 1
    28   11   12 2
    29   11   13 1
    30   13   14 1
    31   13   37 1
    32   13   38 1
    33   14   15 1
    34   14   39 1
    35   14   40 1
    36   15   16 1
    37   15   41 1
    38   15   42 1
    39   16   17 1
    40   16   43 1
    41   16   44 1
    42   17   18 am
    43   17   45 1
    44   18   19 2
    45   18   20 am
    46   20   46 1
    47   20   47 1
@<TRIPOS>MOLECULE
ZINC66144663
   45    46     0     0     0
SMALL
USER_CHARGES

@<TRIPOS>ATOM
      1 C1         -0.0187    1.5258    0.0104 C.3       1 <0>        -0.1644
      2 C2          0.0021   -0.0041    0.0020 C.3       1 <0>         0.1379
      3 H1          0.5123   -0.3556   -0.8948 H         1 <0>         0.1237
      4 C3         -1.4117   -0.5257    0.0127 C.2       1 <0>         0.5186
      5 O1         -1.7902   -1.2332    0.9222 O.2       1 <0>        -0.5121
      6 N1         -2.2556   -0.2060   -0.9884 N.am      1 <0>        -0.5442
      7 N2         -3.5699   -0.6909   -0.9784 N.pl3     1 <0>        -0.4718
      8 C4         -4.4137   -0.3712   -1.9796 C.2       1 <0>         0.5606
      9 S1         -6.0199   -0.9638   -1.9674 S.2       1 <0>        -0.5835
     10 N3         -3.9932    0.4150   -2.9902 N.pl3     1 <0>        -0.6777
     11 C5         -4.9104    0.7625   -4.0784 C.3       1 <0>         0.1370
     12 C6         -4.8536   -0.3144   -5.1816 C.3       1 <0>        -0.1315
     13 C7         -4.9903    0.4856   -6.5008 C.3       1 <0>        -0.1248
     14 C8         -4.1687    1.7662   -6.2106 C.3       1 <0>        -0.1256
     15 C9         -4.4749    2.0853   -4.7327 C.3       1 <0>        -0.1328
     16 N4          0.7106   -0.4894    1.1889 N.am      1 <0>        -0.7154
     17 C10         2.0538   -0.5998    1.1737 C.2       1 <0>         0.5308
     18 O2          2.6758   -0.2974    0.1774 O.2       1 <0>        -0.5341
     19 C11         2.7826   -1.0990    2.3946 C.3       1 <0>        -0.1390
     20 C12         3.0335   -0.0097    3.4506 C.3       1 <0>        -0.1237
     21 C13         4.4214   -0.6391    3.6562 C.3       1 <0>        -0.1425
     22 C14         4.3086   -1.1669    2.2162 C.3       1 <0>        -0.1178
     23 H2          1.0039    1.9031    0.0027 H         1 <0>         0.0846
     24 H3         -0.5459    1.8868   -0.8726 H         1 <0>         0.0700
     25 H4         -0.5289    1.8773    0.9072 H         1 <0>         0.0706
     26 H5         -1.9529    0.3598   -1.7158 H         1 <0>         0.4218
     27 H6         -3.8726   -1.2568   -0.2511 H         1 <0>         0.4593
     28 H7         -3.0831    0.7507   -2.9971 H         1 <0>         0.3896
     29 H8         -5.9269    0.8523   -3.6953 H         1 <0>         0.1235
     30 H9         -3.8998   -0.8411   -5.1519 H         1 <0>         0.0670
     31 H10        -5.6811   -1.0156   -5.0732 H         1 <0>         0.0862
     32 H11        -4.5601   -0.0686   -7.3350 H         1 <0>         0.0720
     33 H12        -6.0338    0.7323   -6.6966 H         1 <0>         0.0745
     34 H13        -3.1042    1.5755   -6.3471 H         1 <0>         0.0668
     35 H14        -4.4963    2.5834   -6.8532 H         1 <0>         0.0727
     36 H15        -5.2803    2.8169   -4.6678 H         1 <0>         0.0839
     37 H16        -3.5811    2.4688   -4.2406 H         1 <0>         0.0680
     38 H17         0.2131   -0.7312    1.9857 H         1 <0>         0.4132
     39 H18         2.3496   -2.0126    2.8020 H         1 <0>         0.1167
     40 H19         3.0680    0.9987    3.0381 H         1 <0>         0.0854
     41 H20         2.3844   -0.0893    4.3227 H         1 <0>         0.0774
     42 H21         5.2173    0.0934    3.7916 H         1 <0>         0.0746
     43 H22         4.4366   -1.4263    4.4099 H         1 <0>         0.0853
     44 H23         4.6889   -2.1808    2.0918 H         1 <0>         0.0738
     45 H24         4.6917   -0.4750    1.4662 H         1 <0>         0.0956
@<TRIPOS>BOND
     1    1    2 1
     2    1   23 1
     3    1   24 1
     4    1   25 1
     5    2    3 1
     6    2    4 1
     7    2   16 1
     8    4    5 2
     9    4    6 am
    10    6    7 1
    11    6   26 1
    12    7    8 1
    13    7   27 1
    14    8    9 2
    15    8   10 1
    16   10   11 1
    17   10   28 1
    18   11   15 1
    19   11   12 1
    20   11   29 1
    21   12   13 1
    22   12   30 1
    23   12   31 1
    24   13   14 1
    25   13   32 1
    26   13   33 1
    27   14   15 1
    28   14   34 1
    29   14   35 1
    30   15   36 1
    31   15   37 1
    32   16   17 am
    33   16   38 1
    34   17   18 2
    35   17   19 1
    36   19   22 1
    37   19   20 1
    38   19   39 1
    39   20   21 1
    40   20   40 1
    41   20   41 1
    42   21   22 1
    43   21   42 1
    44   21   43 1
    45   22   44 1
    46   22   45 1
@<TRIPOS>MOLECULE
ZINC35354201
   37    38     0     0     0
SMALL
USER_CHARGES

@<TRIPOS>ATOM
      1 C1         -0.0178    1.4608    0.0101 C.3       1 <0>         0.0817
      2 N1          0.0021   -0.0041    0.0020 N.pl3     1 <0>        -0.9969
      3 C2          0.0241   -0.7433    1.2666 C.3       1 <0>         0.1657
      4 C3         -1.3844   -0.9091    1.7762 C.ar      1 <0>        -0.1175
      5 C4         -1.9364    0.0485    2.6063 C.ar      1 <0>        -0.1039
      6 C5         -3.2284   -0.1036    3.0737 C.ar      1 <0>        -0.1266
      7 C6         -3.9686   -1.2132    2.7106 C.ar      1 <0>        -0.1146
      8 C7         -3.4169   -2.1704    1.8798 C.ar      1 <0>        -0.1235
      9 C8         -2.1264   -2.0161    1.4089 C.ar      1 <0>        -0.1007
     10 S1         -0.0004   -0.8243   -1.4366 S.o2      1 <0>         2.6936
     11 O1         -0.5312   -2.1147   -1.1675 O.2       1 <0>        -0.9551
     12 O2         -0.5723    0.0488   -2.4009 O.2       1 <0>        -0.9595
     13 C9          1.6818   -1.0594   -1.9051 C.ar      1 <0>        -0.7329
     14 C10         2.3223   -0.1077   -2.6773 C.ar      1 <0>         0.0276
     15 C11         3.6408   -0.2888   -3.0463 C.ar      1 <0>        -0.2145
     16 C12         4.3235   -1.4286   -2.6409 C.ar      1 <0>         0.2721
     17 C13         3.6771   -2.3826   -1.8652 C.ar      1 <0>        -0.2042
     18 C14         2.3602   -2.1925   -1.4950 C.ar      1 <0>         0.0251
     19 N2          5.6569   -1.6152   -3.0127 N.pl3     1 <0>        -0.5880
     20 N3          6.3268   -2.7366   -2.6131 N.3       1 <0>        -0.6054
     21 H1          1.0048    1.8381    0.0023 H         1 <0>         0.0568
     22 H2         -0.5450    1.8219   -0.8730 H         1 <0>         0.0835
     23 H3         -0.5280    1.8123    0.9069 H         1 <0>         0.0772
     24 H4          0.4703   -1.7247    1.1061 H         1 <0>         0.0909
     25 H5          0.6131   -0.1919    1.9996 H         1 <0>         0.0897
     26 H6         -1.3581    0.9154    2.8899 H         1 <0>         0.1205
     27 H7         -3.6594    0.6443    3.7228 H         1 <0>         0.1217
     28 H8         -4.9777   -1.3324    3.0763 H         1 <0>         0.1214
     29 H9         -3.9951   -3.0375    1.5964 H         1 <0>         0.1235
     30 H10        -1.6967   -2.7621    0.7568 H         1 <0>         0.1400
     31 H11         1.7908    0.7780   -2.9925 H         1 <0>         0.1390
     32 H12         4.1403    0.4546   -3.6497 H         1 <0>         0.1306
     33 H13         4.2049   -3.2701   -1.5486 H         1 <0>         0.1358
     34 H14         1.8584   -2.9317   -0.8883 H         1 <0>         0.1387
     35 H15         6.1072   -0.9485   -3.5546 H         1 <0>         0.4073
     36 H16         7.2758   -2.7323   -2.9559 H         1 <0>         0.3622
     37 H17         6.3056   -2.8319   -1.6089 H         1 <0>         0.3389
@<TRIPOS>BOND
     1    1    2 1
     2    1   21 1
     3    1   22 1
     4    1   23 1
     5    2    3 1
     6    2   10 1
     7    3    4 1
     8    3   24 1
     9    3   25 1
    10    4    9 ar
    11    4    5 ar
    12    5    6 ar
    13    5   26 1
    14    6    7 ar
    15    6   27 1
    16    7    8 ar
    17    7   28 1
    18    8    9 ar
    19    8   29 1
    20    9   30 1
    21   10   11 2
    22   10   12 2
    23   10   13 1
    24   13   18 ar
    25   13   14 ar
    26   14   15 ar
    27   14   31 1
    28   15   16 ar
    29   15   32 1
    30   16   17 ar
    31   16   19 1
    32   17   18 ar
    33   17   33 1
    34   18   34 1
    35   19   20 1
    36   19   35 1
    37   20   36 1
    38   20   37 1
@<TRIPOS>MOLECULE
ZINC42406354
   41    42     0     0     0
SMALL
USER_CHARGES

@<TRIPOS>ATOM
      1 C1         -0.9364    1.6104    0.7461 C.ar      1 <0>        -0.0918
      2 C2          0.0661    2.5180    1.0148 C.ar      1 <0>        -0.1207
      3 C3          1.3790    2.0706    1.1970 C.ar      1 <0>         0.0191
      4 C4          1.6636    0.7040    1.1047 C.ar      1 <0>        -0.1263
      5 C5          0.6498   -0.1907    0.8354 C.ar      1 <0>        -0.0787
      6 C6         -0.6466    0.2599    0.6563 C.ar      1 <0>        -0.1890
      7 C7         -1.7485   -0.7251    0.3622 C.3       1 <0>         0.0422
      8 N1         -1.8702   -0.9043   -1.0908 N.4       1 <0>        -0.3681
      9 C8         -2.3026    0.3576   -1.7034 C.3       1 <0>        -0.0123
     10 C9         -2.3528    0.1996   -3.2246 C.3       1 <0>        -0.1479
     11 C10        -3.3444   -0.9105   -3.5846 C.3       1 <0>        -0.1329
     12 C11        -2.9251   -2.2041   -2.8803 C.3       1 <0>        -0.1347
     13 C12        -2.8536   -1.9571   -1.3718 C.3       1 <0>         0.0075
     14 H1         -3.8328   -1.6453   -1.0084 H         1 <0>         0.1546
     15 C13        -2.4415   -3.2277   -0.6743 C.2       1 <0>         0.5097
     16 O1         -1.2681   -3.4513   -0.4648 O.2       1 <0>        -0.5170
     17 N2         -3.3770   -4.1157   -0.2833 N.am      1 <0>        -0.8281
     18 C14         2.4547    3.0322    1.4836 C.2       1 <0>        -0.1529
     19 C15         3.7217    2.5962    1.6590 C.2       1 <0>        -0.1211
     20 C16         4.7571    3.5217    1.9349 C.2       1 <0>         0.4917
     21 O2          4.5044    4.7176    2.0146 O.co2     1 <0>        -0.6848
     22 O3          5.9056    3.1265    2.0939 O.co2     1 <0>        -0.6863
     23 H2         -1.9513    1.9537    0.6096 H         1 <0>         0.1259
     24 H3         -0.1616    3.5714    1.0841 H         1 <0>         0.1365
     25 H4          2.6747    0.3509    1.2438 H         1 <0>         0.1383
     26 H5          0.8679   -1.2460    0.7634 H         1 <0>         0.1294
     27 H6         -1.5141   -1.6823    0.8279 H         1 <0>         0.1348
     28 H7         -2.6897   -0.3475    0.7617 H         1 <0>         0.1298
     29 H8         -3.2935    0.6200   -1.3329 H         1 <0>         0.1285
     30 H9         -1.5977    1.1473   -1.4436 H         1 <0>         0.1415
     31 H10        -2.6758    1.1370   -3.6774 H         1 <0>         0.1154
     32 H11        -1.3622   -0.0626   -3.5962 H         1 <0>         0.0902
     33 H12        -4.3446   -0.6256   -3.2584 H         1 <0>         0.0844
     34 H13        -3.3419   -1.0656   -4.6635 H         1 <0>         0.0991
     35 H14        -3.6571   -2.9848   -3.0870 H         1 <0>         0.1141
     36 H15        -1.9463   -2.5162   -3.2447 H         1 <0>         0.0967
     37 H16        -4.3155   -3.9369   -0.4509 H         1 <0>         0.4112
     38 H17        -3.1117   -4.9336    0.1657 H         1 <0>         0.4221
     39 H18         2.2319    4.0866    1.5539 H         1 <0>         0.1367
     40 H19         3.9445    1.5417    1.5887 H         1 <0>         0.1036
     41 H20        -0.9749   -1.1714   -1.4719 H         1 <0>         0.4295
@<TRIPOS>BOND
     1    1    6 ar
     2    1    2 ar
     3    1   23 1
     4    2    3 ar
     5    2   24 1
     6    3    4 ar
     7    3   18 1
     8    4    5 ar
     9    4   25 1
    10    5    6 ar
    11    5   26 1
    12    6    7 1
    13    7    8 1
    14    7   27 1
    15    7   28 1
    16    8   13 1
    17    8    9 1
    18    8   41 1
    19    9   10 1
    20    9   29 1
    21    9   30 1
    22   10   11 1
    23   10   31 1
    24   10   32 1
    25   11   12 1
    26   11   33 1
    27   11   34 1
    28   12   13 1
    29   12   35 1
    30   12   36 1
    31   13   14 1
    32   13   15 1
    33   15   16 2
    34   15   17 am
    35   17   37 1
    36   17   38 1
    37   18   19 2
    38   18   39 1
    39   19   20 1
    40   19   40 1
    41   20   21 2
    42   20   22 1
@<TRIPOS>MOLECULE
ZINC49103971
   43    43     0     0     0
SMALL
USER_CHARGES

@<TRIPOS>ATOM
      1 C1         -0.4299    0.7884    0.4395 C.3       1 <0>        -0.1535
      2 C2         -0.0222   -0.6858    0.4000 C.3       1 <0>        -0.1142
      3 C3          0.5141   -1.0295   -0.9911 C.3       1 <0>        -0.1258
      4 C4          0.9219   -2.5036   -1.0306 C.3       1 <0>         0.1442
      5 H1          1.6330   -2.7055   -0.2295 H         1 <0>         0.1118
      6 C5          1.5614   -2.8125   -2.3597 C.2       1 <0>         0.5149
      7 O1          0.9398   -3.4206   -3.2051 O.2       1 <0>        -0.5275
      8 N1          2.8242   -2.4129   -2.6090 N.am      1 <0>        -0.6021
      9 C6          3.6293   -1.7763   -1.5576 C.3       1 <0>         0.0994
     10 C7          4.9539   -2.5341   -1.4240 C.3       1 <0>        -0.1369
     11 C8          5.6409   -2.5974   -2.7901 C.3       1 <0>        -0.1219
     12 C9          4.7489   -3.3540   -3.7770 C.3       1 <0>        -0.1339
     13 C10         3.4240   -2.6110   -3.9355 C.3       1 <0>         0.1466
     14 H2          3.6051   -1.6431   -4.4029 H         1 <0>         0.0740
     15 C11         2.4768   -3.4364   -4.8086 C.3       1 <0>        -0.1125
     16 C12         3.0863   -3.6079   -6.2015 C.3       1 <0>        -0.1612
     17 N2         -0.2652   -3.3436   -0.8529 N.am      1 <0>        -0.7293
     18 C13        -0.7068   -3.6325    0.3872 C.2       1 <0>         0.7091
     19 O2         -0.1200   -3.1961    1.3586 O.2       1 <0>        -0.5887
     20 N3         -1.7989   -4.4052    0.5507 N.am      1 <0>        -0.8659
     21 H3          0.4373    1.4112    0.2204 H         1 <0>         0.0522
     22 H4         -1.2056    0.9709   -0.3042 H         1 <0>         0.0502
     23 H5         -0.8120    1.0332    1.4306 H         1 <0>         0.0549
     24 H6          0.7535   -0.8683    1.1438 H         1 <0>         0.0696
     25 H7         -0.8894   -1.3086    0.6192 H         1 <0>         0.0675
     26 H8         -0.2615   -0.8470   -1.7348 H         1 <0>         0.0705
     27 H9          1.3814   -0.4066   -1.2102 H         1 <0>         0.0757
     28 H10         3.8274   -0.7388   -1.8268 H         1 <0>         0.0757
     29 H11         3.0898   -1.8138   -0.6112 H         1 <0>         0.0898
     30 H12         5.5999   -2.0155   -0.7156 H         1 <0>         0.0796
     31 H13         4.7600   -3.5456   -1.0671 H         1 <0>         0.0683
     32 H14         5.8122   -1.5856   -3.1576 H         1 <0>         0.0655
     33 H15         6.5954   -3.1147   -2.6930 H         1 <0>         0.0679
     34 H16         5.2490   -3.4190   -4.7433 H         1 <0>         0.0787
     35 H17         4.5569   -4.3578   -3.3980 H         1 <0>         0.0669
     36 H18         2.3255   -4.4160   -4.3551 H         1 <0>         0.0720
     37 H19         1.5190   -2.9227   -4.8919 H         1 <0>         0.0878
     38 H20         3.9931   -4.2085   -6.1298 H         1 <0>         0.0522
     39 H21         2.3696   -4.1083   -6.8526 H         1 <0>         0.0566
     40 H22         3.3304   -2.6291   -6.6142 H         1 <0>         0.0512
     41 H23        -0.7334   -3.6917   -1.6278 H         1 <0>         0.4061
     42 H24        -2.2671   -4.7534   -0.2243 H         1 <0>         0.3982
     43 H25        -2.1167   -4.6132    1.4432 H         1 <0>         0.4167
@<TRIPOS>BOND
     1    1    2 1
     2    1   21 1
     3    1   22 1
     4    1   23 1
     5    2    3 1
     6    2   24 1
     7    2   25 1
     8    3    4 1
     9    3   26 1
    10    3   27 1
    11    4    5 1
    12    4    6 1
    13    4   17 1
    14    6    7 2
    15    6    8 am
    16    8   13 1
    17    8    9 1
    18    9   10 1
    19    9   28 1
    20    9   29 1
    21   10   11 1
    22   10   30 1
    23   10   31 1
    24   11   12 1
    25   11   32 1
    26   11   33 1
    27   12   13 1
    28   12   34 1
    29   12   35 1
    30   13   14 1
    31   13   15 1
    32   15   16 1
    33   15   36 1
    34   15   37 1
    35   16   38 1
    36   16   39 1
    37   16   40 1
    38   17   18 am
    39   17   41 1
    40   18   19 2
    41   18   20 am
    42   20   42 1
    43   20   43 1
@<TRIPOS>MOLECULE
ZINC51151061
   31    31     0     0     0
SMALL
USER_CHARGES

@<TRIPOS>ATOM
      1 C1         -0.0187    1.5258    0.0104 C.3       1 <0>        -0.1347
      2 C2          0.0021   -0.0041    0.0020 C.3       1 <0>        -0.0641
      3 C3          0.7421   -0.5109    1.2415 C.3       1 <0>        -0.1510
      4 S1         -1.6997   -0.6320    0.0149 S.3       1 <0>        -0.2430
      5 C4         -1.5061   -2.4280   -0.1500 C.3       1 <0>        -0.0403
      6 C5         -2.8641   -3.0815   -0.1531 C.ar      1 <0>        -0.1533
      7 C6         -3.4421   -3.4803    1.0363 C.ar      1 <0>         0.0156
      8 C7         -4.6880   -4.0799    1.0344 C.ar      1 <0>        -0.1092
      9 C8         -5.3596   -4.2825   -0.1576 C.ar      1 <0>        -0.0003
     10 C9         -4.7875   -3.8862   -1.3502 C.ar      1 <0>        -0.1844
     11 C10        -3.5382   -3.2782   -1.3513 C.ar      1 <0>         0.2877
     12 N1         -2.9591   -2.8709   -2.5553 N.pl3     1 <0>        -0.5701
     13 N2         -3.6235   -3.0652   -3.7330 N.3       1 <0>        -0.6038
     14 N3         -5.3041   -4.5064    2.3107 N.pl3     1 <0>         0.0453
     15 O1         -4.7181   -4.3303    3.3534 O.2       1 <0>        -0.1716
     16 O2         -6.3934   -5.0308    2.3106 O.3       1 <0>        -0.1705
     17 H1          1.0039    1.9031    0.0027 H         1 <0>         0.0733
     18 H2         -0.5459    1.8868   -0.8726 H         1 <0>         0.0650
     19 H3         -0.5289    1.8773    0.9072 H         1 <0>         0.0669
     20 H4          0.5123   -0.3556   -0.8948 H         1 <0>         0.0852
     21 H5          1.7647   -0.1336    1.2338 H         1 <0>         0.0668
     22 H6          0.2319   -0.1594    2.1383 H         1 <0>         0.0712
     23 H7          0.7568   -1.6008    1.2356 H         1 <0>         0.0552
     24 H8         -0.9921   -2.6538   -1.0843 H         1 <0>         0.0827
     25 H9         -0.9215   -2.8089    0.6874 H         1 <0>         0.1006
     26 H10        -2.9202   -3.3239    1.9688 H         1 <0>         0.1548
     27 H11        -6.3325   -4.7514   -0.1556 H         1 <0>         0.1549
     28 H12        -5.3123   -4.0450   -2.2807 H         1 <0>         0.1521
     29 H13        -2.0851   -2.4502   -2.5553 H         1 <0>         0.4098
     30 H14        -3.0839   -2.7221   -4.5135 H         1 <0>         0.3666
     31 H15        -3.8617   -4.0377   -3.8577 H         1 <0>         0.3425
@<TRIPOS>BOND
     1    1    2 1
     2    1   17 1
     3    1   18 1
     4    1   19 1
     5    2    3 1
     6    2    4 1
     7    2   20 1
     8    3   21 1
     9    3   22 1
    10    3   23 1
    11    4    5 1
    12    5    6 1
    13    5   24 1
    14    5   25 1
    15    6   11 ar
    16    6    7 ar
    17    7    8 ar
    18    7   26 1
    19    8    9 ar
    20    8   14 1
    21    9   10 ar
    22    9   27 1
    23   10   11 ar
    24   10   28 1
    25   11   12 1
    26   12   13 1
    27   12   29 1
    28   13   30 1
    29   13   31 1
    30   14   15 2
    31   14   16 1
@<TRIPOS>MOLECULE
ZINC66778367
   41    42     0     0     0
SMALL
USER_CHARGES

@<TRIPOS>ATOM
      1 C1          2.4779    1.2276   -0.0203 C.3       1 <0>        -0.1188
      2 C2          2.2975   -0.2686   -0.0143 C.ar      1 <0>        -0.0314
      3 C3          2.3726   -0.9781   -1.1991 C.ar      1 <0>        -0.1731
      4 C4          2.2077   -2.3509   -1.1981 C.ar      1 <0>        -0.0625
      5 C5          1.9672   -3.0183   -0.0130 C.ar      1 <0>        -0.2061
      6 C6          1.8916   -2.3089    1.1787 C.ar      1 <0>         0.2174
      7 C7          2.0630   -0.9302    1.1748 C.ar      1 <0>        -0.1868
      8 N1          1.6485   -2.9806    2.3790 N.pl3     1 <0>        -0.5437
      9 N2          1.4807   -4.3715    2.3817 N.am      1 <0>        -0.5146
     10 C8          1.2462   -5.0197    3.5399 C.2       1 <0>         0.5072
     11 O1          1.1804   -4.3989    4.5797 O.2       1 <0>        -0.5364
     12 C9          1.0657   -6.5158    3.5429 C.3       1 <0>         0.1126
     13 N3          0.8252   -6.9760    4.9128 N.am      1 <0>        -0.7175
     14 C10         0.6341   -8.2871    5.1595 C.2       1 <0>         0.5651
     15 O2          0.6612   -9.0878    4.2454 O.2       1 <0>        -0.5276
     16 C11         0.3913   -8.7515    6.5420 C.ar      1 <0>        -0.1450
     17 C12         0.4883   -7.8568    7.6092 C.ar      1 <0>        -0.0799
     18 C13         0.2602   -8.2964    8.8966 C.ar      1 <0>        -0.1350
     19 C14        -0.0637   -9.6211    9.1314 C.ar      1 <0>        -0.0851
     20 C15        -0.1614  -10.5129    8.0784 C.ar      1 <0>        -0.1322
     21 C16         0.0587  -10.0848    6.7852 C.ar      1 <0>        -0.0192
     22 C17        -0.0538  -11.0563    5.6387 C.3       1 <0>        -0.1232
     23 H1          3.5333    1.4668    0.1102 H         1 <0>         0.0741
     24 H2          2.1284    1.6319   -0.9703 H         1 <0>         0.0698
     25 H3          1.9024    1.6662    0.7949 H         1 <0>         0.0678
     26 H4          2.5602   -0.4587   -2.1272 H         1 <0>         0.1222
     27 H5          2.2666   -2.9019   -2.1251 H         1 <0>         0.1252
     28 H6          1.8378   -4.0905   -0.0130 H         1 <0>         0.1152
     29 H7          2.0088   -0.3760    2.1002 H         1 <0>         0.1250
     30 H8          1.5959   -2.4841    3.2106 H         1 <0>         0.4348
     31 H9          1.5333   -4.8681    1.5501 H         1 <0>         0.4260
     32 H10         0.2141   -6.7803    2.9160 H         1 <0>         0.1077
     33 H11         1.9657   -6.9912    3.1527 H         1 <0>         0.1078
     34 H12         0.8036   -6.3370    5.6423 H         1 <0>         0.4126
     35 H13         0.7417   -6.8228    7.4273 H         1 <0>         0.1271
     36 H14         0.3348   -7.6053    9.7231 H         1 <0>         0.1300
     37 H15        -0.2407   -9.9604   10.1414 H         1 <0>         0.1289
     38 H16        -0.4142  -11.5455    8.2684 H         1 <0>         0.1310
     39 H17         0.9365  -11.4336    5.3837 H         1 <0>         0.0768
     40 H18        -0.6959  -11.8880    5.9288 H         1 <0>         0.0595
     41 H19        -0.4835  -10.5500    4.7743 H         1 <0>         0.0943
@<TRIPOS>BOND
     1    1    2 1
     2    1   23 1
     3    1   24 1
     4    1   25 1
     5    2    7 ar
     6    2    3 ar
     7    3    4 ar
     8    3   26 1
     9    4    5 ar
    10    4   27 1
    11    5    6 ar
    12    5   28 1
    13    6    7 ar
    14    6    8 1
    15    7   29 1
    16    8    9 1
    17    8   30 1
    18    9   10 am
    19    9   31 1
    20   10   11 2
    21   10   12 1
    22   12   13 1
    23   12   32 1
    24   12   33 1
    25   13   14 am
    26   13   34 1
    27   14   15 2
    28   14   16 1
    29   16   21 ar
    30   16   17 ar
    31   17   18 ar
    32   17   35 1
    33   18   19 ar
    34   18   36 1
    35   19   20 ar
    36   19   37 1
    37   20   21 ar
    38   20   38 1
    39   21   22 1
    40   22   39 1
    41   22   40 1
    42   22   41 1
@<TRIPOS>MOLECULE
ZINC24608622
   39    40     0     0     0
SMALL
USER_CHARGES
(1R,2S,4S)-N'-(3-methylbutanoyl)norbornane-2-carbohydrazide
@<TRIPOS>ATOM
      1 C1         -0.4387    0.2663    2.4389 C.3       1 <0>        -0.1511
      2 C2         -1.1228    0.8844    1.2179 C.3       1 <0>        -0.0793
      3 C3         -1.3068    2.3866    1.4423 C.3       1 <0>        -0.1569
      4 C4         -0.2562    0.6563   -0.0222 C.3       1 <0>        -0.1291
      5 C5         -0.9851    1.1555   -1.2431 C.2       1 <0>         0.5148
      6 O1         -2.0890    1.6455   -1.1323 O.2       1 <0>        -0.5428
      7 N1         -0.4102    1.0576   -2.4582 N.am      1 <0>        -0.5382
      8 N2         -1.0878    1.5217   -3.5932 N.am      1 <0>        -0.5365
      9 C6         -0.5129    1.4237   -4.8083 C.2       1 <0>         0.5191
     10 O2          0.5910    0.9338   -4.9191 O.2       1 <0>        -0.5441
     11 C7         -1.2418    1.9229   -6.0292 C.3       1 <0>        -0.1017
     12 H1         -1.7283    2.8575   -5.7134 H         1 <0>         0.0951
     13 C8         -0.2539    2.1277   -7.2004 C.3       1 <0>        -0.1110
     14 C9         -0.7523    1.1537   -8.3113 C.3       1 <0>        -0.1088
     15 H2         -0.3696    1.3633   -9.3211 H         1 <0>         0.1024
     16 C10        -0.4223   -0.2675   -7.7612 C.3       1 <0>        -0.1233
     17 C11        -1.4102   -0.4723   -6.5900 C.3       1 <0>        -0.1280
     18 C12        -2.2440    0.8445   -6.5428 C.3       1 <0>        -0.0755
     19 H3         -3.1872    0.7792   -5.9806 H         1 <0>         0.1063
     20 C13        -2.3021    1.2059   -8.0690 C.3       1 <0>        -0.1188
     21 H4         -0.3064   -0.8137    2.2775 H         1 <0>         0.0561
     22 H5         -1.0618    0.4302    3.3304 H         1 <0>         0.0606
     23 H6          0.5440    0.7380    2.5866 H         1 <0>         0.0566
     24 H7         -2.1055    0.4127    1.0703 H         1 <0>         0.0793
     25 H8         -1.7986    2.8309    0.5644 H         1 <0>         0.0734
     26 H9         -0.3241    2.8583    1.5900 H         1 <0>         0.0486
     27 H10        -1.9299    2.5505    2.3338 H         1 <0>         0.0546
     28 H11         0.6921    1.2027    0.0877 H         1 <0>         0.0987
     29 H12        -0.0495   -0.4185   -0.1324 H         1 <0>         0.0987
     30 H13         0.5910    0.6133   -2.5587 H         1 <0>         0.4557
     31 H14        -2.0890    1.9661   -3.4927 H         1 <0>         0.4556
     32 H15        -0.2887    3.1765   -7.5303 H         1 <0>         0.0693
     33 H16         0.7653    1.8816   -6.8677 H         1 <0>         0.0877
     34 H17        -0.5712   -1.0123   -8.5569 H         1 <0>         0.0606
     35 H18         0.6242   -0.2961   -7.4234 H         1 <0>         0.0693
     36 H19        -2.0422   -1.3496   -6.7925 H         1 <0>         0.0654
     37 H20        -0.8469   -0.6333   -5.6590 H         1 <0>         0.0690
     38 H21        -2.6767    2.2125   -8.3067 H         1 <0>         0.0732
     39 H22        -2.7994    0.4676   -8.7152 H         1 <0>         0.0749
@<TRIPOS>BOND
     1    1    2 1
     2    1   21 1
     3    1   22 1
     4    1   23 1
     5    2    3 1
     6    2    4 1
     7    2   24 1
     8    3   25 1
     9    3   26 1
    10    3   27 1
    11    4    5 1
    12    4   28 1
    13    4   29 1
    14    5    6 2
    15    5    7 am
    16    7    8 1
    17    7   30 1
    18    8    9 am
    19    8   31 1
    20    9   10 2
    21    9   11 1
    22   11   12 1
    23   11   18 1
    24   11   13 1
    25   13   14 1
    26   13   32 1
    27   13   33 1
    28   14   15 1
    29   14   20 1
    30   14   16 1
    31   16   17 1
    32   16   34 1
    33   16   35 1
    34   17   18 1
    35   17   36 1
    36   17   37 1
    37   18   19 1
    38   18   20 1
    39   20   38 1
    40   20   39 1
@<TRIPOS>MOLECULE
ZINC37781666
   39    41     0     0     0
SMALL
USER_CHARGES

@<TRIPOS>ATOM
      1 C1         -0.0184    1.5028    0.0103 C.3       1 <0>        -0.0794
      2 C2          0.0021   -0.0041    0.0020 C.2       1 <0>         0.2865
      3 N1          0.0078   -0.7860   -1.0926 N.pl3     1 <0>        -0.4828
      4 H1         -0.0009   -0.4908   -2.0166 H         1 <0>         0.4417
      5 N2          0.0287   -2.1135   -0.6349 N.2       1 <0>        -0.3053
      6 C3          0.0344   -2.0604    0.6789 C.2       1 <0>         0.2726
      7 N3          0.0230   -0.7751    1.0569 N.2       1 <0>        -0.5297
      8 C4          0.0546   -3.2303    1.5919 C.ar      1 <0>         0.0290
      9 C5          0.0524   -3.0393    2.9726 C.ar      1 <0>        -0.1334
     10 C6          0.0712   -4.1284    3.8207 C.ar      1 <0>        -0.0762
     11 C7          0.0923   -5.4106    3.3053 C.ar      1 <0>        -0.1834
     12 C8          0.0946   -5.6105    1.9301 C.ar      1 <0>         0.2151
     13 C9          0.0700   -4.5212    1.0714 C.ar      1 <0>        -0.1609
     14 N4          0.1169   -6.9079    1.4127 N.pl3     1 <0>        -0.7409
     15 C10         0.1377   -8.0581    2.3198 C.3       1 <0>         0.1880
     16 H2         -0.4551   -7.8324    3.2063 H         1 <0>         0.0800
     17 C11         1.5804   -8.3556    2.7331 C.3       1 <0>        -0.1672
     18 C12        -0.4513   -9.2785    1.6095 C.3       1 <0>        -0.1386
     19 C13        -1.7991   -9.8038    2.1079 C.3       1 <0>        -0.1716
     20 C14        -0.5181  -10.5894    2.3956 C.3       1 <0>        -0.1660
     21 C15        -0.1689   -9.3685    0.1085 C.3       1 <0>        -0.1181
     22 H3          1.0042    1.8801    0.0026 H         1 <0>         0.0940
     23 H4         -0.5455    1.8639   -0.8728 H         1 <0>         0.0846
     24 H5         -0.5286    1.8543    0.9071 H         1 <0>         0.1003
     25 H6          0.0363   -2.0388    3.3791 H         1 <0>         0.1314
     26 H7          0.0698   -3.9780    4.8902 H         1 <0>         0.1271
     27 H8          0.1073   -6.2593    3.9730 H         1 <0>         0.1232
     28 H9          0.0673   -4.6742    0.0023 H         1 <0>         0.1264
     29 H10         0.1185   -7.0472    0.4527 H         1 <0>         0.3997
     30 H11         2.1732   -8.5812    1.8467 H         1 <0>         0.0592
     31 H12         2.0000   -7.4861    3.2392 H         1 <0>         0.0607
     32 H13         1.5959   -9.2113    3.4081 H         1 <0>         0.0644
     33 H14        -2.2662   -9.2799    2.9419 H         1 <0>         0.0953
     34 H15        -2.4850  -10.2135    1.3665 H         1 <0>         0.0952
     35 H16        -0.3613  -11.5160    1.8434 H         1 <0>         0.0971
     36 H17        -0.1425  -10.5824    3.4188 H         1 <0>         0.0968
     37 H18         0.9078   -9.4071   -0.0570 H         1 <0>         0.0631
     38 H19        -0.6310  -10.2695   -0.2948 H         1 <0>         0.0617
     39 H20        -0.5823   -8.4929   -0.3921 H         1 <0>         0.0604
@<TRIPOS>BOND
     1    1    2 1
     2    1   22 1
     3    1   23 1
     4    1   24 1
     5    2    7 2
     6    2    3 1
     7    3    4 1
     8    3    5 1
     9    5    6 2
    10    6    7 1
    11    6    8 1
    12    8   13 ar
    13    8    9 ar
    14    9   10 ar
    15    9   25 1
    16   10   11 ar
    17   10   26 1
    18   11   12 ar
    19   11   27 1
    20   12   13 ar
    21   12   14 1
    22   13   28 1
    23   14   15 1
    24   14   29 1
    25   15   16 1
    26   15   17 1
    27   15   18 1
    28   17   30 1
    29   17   31 1
    30   17   32 1
    31   18   20 1
    32   18   19 1
    33   18   21 1
    34   19   20 1
    35   19   33 1
    36   19   34 1
    37   20   35 1
    38   20   36 1
    39   21   37 1
    40   21   38 1
    41   21   39 1
@<TRIPOS>MOLECULE
ZINC48687661
   31    32     0     0     0
SMALL
USER_CHARGES

@<TRIPOS>ATOM
      1 C1         -0.0167    1.3801    0.0096 C.ar      1 <0>        -0.0758
      2 C2          1.1931    2.0591    0.0017 C.ar      1 <0>        -0.1634
      3 C3          2.3767    1.3400   -0.0134 C.ar      1 <0>         0.1037
      4 N1          2.3686    0.0244   -0.0209 N.ar      1 <0>        -0.4732
      5 C4          1.2323   -0.6653   -0.0137 C.ar      1 <0>         0.1336
      6 C5          0.0021   -0.0041    0.0020 C.ar      1 <0>        -0.1450
      7 C6          1.2707   -2.1386   -0.0225 C.2       1 <0>        -0.0185
      8 C7          2.4539   -2.7811   -0.0377 C.2       1 <0>        -0.1675
      9 C8          2.4922   -4.2472   -0.0464 C.2       1 <0>         0.5455
     10 O1          1.4548   -4.8829   -0.0399 O.2       1 <0>        -0.5419
     11 N2          3.6765   -4.8903   -0.0616 N.am      1 <0>        -0.5163
     12 N3          3.7130   -6.2908   -0.0700 N.pl3     1 <0>        -0.5403
     13 C9          4.9417   -6.9580   -0.0857 C.ar      1 <0>         0.2077
     14 C10         6.1265   -6.2335   -0.0874 C.ar      1 <0>        -0.1735
     15 C11         7.3391   -6.8947   -0.1030 C.ar      1 <0>        -0.0973
     16 C12         7.3740   -8.2788   -0.1170 C.ar      1 <0>         0.0416
     17 C13         6.1939   -9.0032   -0.1154 C.ar      1 <0>        -0.0961
     18 C14         4.9791   -8.3463   -0.0940 C.ar      1 <0>        -0.1583
     19 F1          8.5611   -8.9235   -0.1327 F         1 <0>        -0.1429
     20 H1         -0.9523    1.9194    0.0259 H         1 <0>         0.1401
     21 H2          1.2118    3.1389    0.0070 H         1 <0>         0.1393
     22 H3          3.3196    1.8666   -0.0196 H         1 <0>         0.1614
     23 H4         -0.9211   -0.5645    0.0082 H         1 <0>         0.1416
     24 H5          0.3499   -2.7029   -0.0168 H         1 <0>         0.1470
     25 H6          3.3748   -2.2169   -0.0434 H         1 <0>         0.1460
     26 H7          4.5036   -4.3836   -0.0668 H         1 <0>         0.4247
     27 H8          2.8860   -6.7976   -0.0648 H         1 <0>         0.4364
     28 H9          6.0997   -5.1539   -0.0768 H         1 <0>         0.1264
     29 H10         8.2607   -6.3316   -0.1047 H         1 <0>         0.1381
     30 H11         6.2235  -10.0828   -0.1263 H         1 <0>         0.1400
     31 H12         4.0590   -8.9117   -0.0879 H         1 <0>         0.1366
@<TRIPOS>BOND
     1    1    6 ar
     2    1    2 ar
     3    1   20 1
     4    2    3 ar
     5    2   21 1
     6    3    4 ar
     7    3   22 1
     8    4    5 ar
     9    5    6 ar
    10    5    7 1
    11    6   23 1
    12    7    8 2
    13    7   24 1
    14    8    9 1
    15    8   25 1
    16    9   10 2
    17    9   11 am
    18   11   12 1
    19   11   26 1
    20   12   13 1
    21   12   27 1
    22   13   18 ar
    23   13   14 ar
    24   14   15 ar
    25   14   28 1
    26   15   16 ar
    27   15   29 1
    28   16   17 ar
    29   16   19 1
    30   17   18 ar
    31   17   30 1
    32   18   31 1
@<TRIPOS>MOLECULE
ZINC57964587
   27    28     0     0     0
SMALL
USER_CHARGES

@<TRIPOS>ATOM
      1 C1         -0.0187    1.5258    0.0104 C.3       1 <0>        -0.1468
      2 C2          0.0021   -0.0041    0.0020 C.3       1 <0>        -0.1087
      3 C3          0.7182   -0.4975   -1.2568 C.3       1 <0>        -0.1108
      4 S1          0.7428   -2.3113   -1.2668 S.3       1 <0>         0.0250
      5 C4          1.5892   -2.7179   -2.7577 C.2       1 <0>         0.1980
      6 N1          2.0802   -1.8685   -3.6311 N.2       1 <0>        -0.2840
      7 N2          2.6332   -2.5023   -4.6025 N.2       1 <0>        -0.2411
      8 C5          2.5295   -3.7988   -4.4094 C.2       1 <0>         0.2323
      9 N3          1.8621   -3.9763   -3.2177 N.pl3     1 <0>        -0.3054
     10 N4          1.5384   -5.1618   -2.6212 N.3       1 <0>        -0.5786
     11 C6          3.0360   -4.8592   -5.2954 C.2       1 <0>        -0.1098
     12 C7          3.9412   -4.7686   -6.3226 C.2       1 <0>        -0.0896
     13 C8          4.2662   -5.9108   -7.0193 C.2       1 <0>        -0.1571
     14 C9          3.6842   -7.0874   -6.6708 C.2       1 <0>        -0.1409
     15 S2          2.6387   -6.5998   -5.3084 S.3       1 <0>         0.0485
     16 H1          1.0039    1.9031    0.0027 H         1 <0>         0.0595
     17 H2         -0.5459    1.8868   -0.8726 H         1 <0>         0.0593
     18 H3         -0.5289    1.8773    0.9072 H         1 <0>         0.0640
     19 H4          0.5293   -0.3651    0.8851 H         1 <0>         0.0751
     20 H5         -1.0205   -0.3814    0.0098 H         1 <0>         0.0745
     21 H6          0.1910   -0.1364   -2.1398 H         1 <0>         0.0969
     22 H7          1.7408   -0.1202   -1.2645 H         1 <0>         0.0977
     23 H8          0.6324   -5.4846   -2.9264 H         1 <0>         0.3694
     24 H9          2.2474   -5.8587   -2.7934 H         1 <0>         0.3767
     25 H10         4.3894   -3.8202   -6.5797 H         1 <0>         0.1496
     26 H11         4.9751   -5.8715   -7.8332 H         1 <0>         0.1490
     27 H12         3.8214   -8.0671   -7.1042 H         1 <0>         0.1973
@<TRIPOS>BOND
     1    1    2 1
     2    1   16 1
     3    1   17 1
     4    1   18 1
     5    2    3 1
     6    2   19 1
     7    2   20 1
     8    3    4 1
     9    3   21 1
    10    3   22 1
    11    4    5 1
    12    5    9 1
    13    5    6 2
    14    6    7 1
    15    7    8 2
    16    8    9 1
    17    8   11 1
    18    9   10 1
    19   10   23 1
    20   10   24 1
    21   11   15 1
    22   11   12 2
    23   12   13 1
    24   12   25 1
    25   13   14 2
    26   13   26 1
    27   14   15 1
    28   14   27 1
@<TRIPOS>MOLECULE
ZINC66618637
   37    37     0     0     0
SMALL
USER_CHARGES

@<TRIPOS>ATOM
      1 C1          0.0455    1.4501    0.0542 C.3       1 <0>        -0.1597
      2 C2          0.0246   -0.0796    0.0288 C.3       1 <0>        -0.0645
      3 H1          0.5360   -0.4646    0.9110 H         1 <0>         0.0809
      4 C3         -1.4247   -0.5698    0.0248 C.3       1 <0>        -0.1397
      5 C4         -2.0892   -0.1836    1.3211 C.2       1 <0>         0.5204
      6 O1         -1.4651    0.4241    2.1650 O.2       1 <0>        -0.5359
      7 N1         -3.3771   -0.5133    1.5425 N.am      1 <0>        -0.6355
      8 C5         -3.9614   -0.2509    2.7827 C.ar      1 <0>         0.2199
      9 C6         -5.2462   -0.7200    3.0550 C.ar      1 <0>         0.2529
     10 C7         -5.8127   -0.4508    4.2932 C.ar      1 <0>        -0.1588
     11 C8         -5.0732    0.2779    5.2141 C.ar      1 <0>        -0.0896
     12 C9         -3.8064    0.7103    4.8748 C.ar      1 <0>        -0.0183
     13 N2         -3.2898    0.4360    3.6920 N.ar      1 <0>        -0.4053
     14 O2         -5.9339   -1.4301    2.1212 O.3       1 <0>        -0.6409
     15 C10         0.7352   -0.5784   -1.2310 C.3       1 <0>        -0.0650
     16 C11         2.1846   -0.0882   -1.2270 C.3       1 <0>        -0.1439
     17 C12         0.7144   -2.1081   -1.2564 C.3       1 <0>        -0.1488
     18 C13         0.0174   -0.0380   -2.4693 C.3       1 <0>        -0.1496
     19 H2          1.0780    1.7994    0.0571 H         1 <0>         0.0612
     20 H3         -0.4659    1.8351   -0.8280 H         1 <0>         0.0550
     21 H4         -0.4607    1.8055    0.9517 H         1 <0>         0.0675
     22 H5         -1.9602   -0.1140   -0.8080 H         1 <0>         0.1098
     23 H6         -1.4411   -1.6544   -0.0828 H         1 <0>         0.1115
     24 H7         -3.8980   -0.9330    0.8401 H         1 <0>         0.4428
     25 H8         -6.8058   -0.8000    4.5343 H         1 <0>         0.1490
     26 H9         -5.4846    0.5050    6.1865 H         1 <0>         0.1547
     27 H10        -3.2287    1.2779    5.5892 H         1 <0>         0.1798
     28 H11        -2.3959    0.7492    3.4826 H         1 <0>         0.4339
     29 H12         2.6960   -0.4732   -0.3448 H         1 <0>         0.0552
     30 H13         2.6908   -0.4436   -2.1245 H         1 <0>         0.0565
     31 H14         2.1994    1.0016   -1.2089 H         1 <0>         0.0596
     32 H15        -0.3181   -2.4574   -1.2592 H         1 <0>         0.0569
     33 H16         1.2206   -2.4635   -2.1539 H         1 <0>         0.0586
     34 H17         1.2258   -2.4932   -0.3742 H         1 <0>         0.0562
     35 H18         0.0323    1.0518   -2.4512 H         1 <0>         0.0602
     36 H19         0.5237   -0.3934   -3.3668 H         1 <0>         0.0570
     37 H20        -1.0151   -0.3872   -2.4722 H         1 <0>         0.0561
@<TRIPOS>BOND
     1    1    2 1
     2    1   19 1
     3    1   20 1
     4    1   21 1
     5    2    3 1
     6    2    4 1
     7    2   15 1
     8    4    5 1
     9    4   22 1
    10    4   23 1
    11    5    6 2
    12    5    7 am
    13    7   24 1
    14    7    8 1
    15    8    9 ar
    16    8   13 ar
    17    9   14 1
    18    9   10 ar
    19   10   11 ar
    20   10   25 1
    21   11   12 ar
    22   11   26 1
    23   12   13 ar
    24   12   27 1
    25   13   28 1
    26   15   16 1
    27   15   17 1
    28   15   18 1
    29   16   29 1
    30   16   30 1
    31   16   31 1
    32   17   32 1
    33   17   33 1
    34   17   34 1
    35   18   35 1
    36   18   36 1
    37   18   37 1
@<TRIPOS>MOLECULE
ZINC20085884
   39    40     0     0     0
SMALL
USER_CHARGES

@<TRIPOS>ATOM
      1 C1         -0.0187    1.5258    0.0104 C.3       1 <0>        -0.1801
      2 C2          0.0021   -0.0041    0.0020 C.3       1 <0>         0.0846
      3 H1         -1.0205   -0.3814    0.0098 H         1 <0>         0.1469
      4 C3          0.7074   -0.4901   -1.2379 C.ar      1 <0>        -0.1369
      5 C4          2.0894   -0.5100   -1.2817 C.ar      1 <0>        -0.1134
      6 C5          2.7445   -0.9558   -2.4154 C.ar      1 <0>        -0.0927
      7 C6          2.0140   -1.3830   -3.5105 C.ar      1 <0>         0.1056
      8 C7          0.6209   -1.3618   -3.4667 C.ar      1 <0>         0.1140
      9 C8         -0.0292   -0.9202   -2.3263 C.ar      1 <0>        -0.0969
     10 N1         -0.1069   -1.7950   -4.5841 N.am      1 <0>        -0.6647
     11 C9          0.5258   -2.5081   -5.5412 C.2       1 <0>         0.4893
     12 O1         -0.0759   -2.8664   -6.5315 O.2       1 <0>        -0.4841
     13 C10         1.9830   -2.8562   -5.3737 C.3       1 <0>         0.0490
     14 O2          2.6414   -1.8253   -4.6329 O.3       1 <0>        -0.2939
     15 N2          0.7126   -0.4907    1.1921 N.4       1 <0>        -0.5091
     16 C11        -0.0398   -0.1189    2.3978 C.3       1 <0>        -0.0121
     17 C12         0.7001   -0.6257    3.6373 C.3       1 <0>        -0.1179
     18 C13         2.0436    0.0961    3.7599 C.3       1 <0>        -0.1716
     19 C14        -0.1432   -0.3488    4.8835 C.3       1 <0>        -0.1529
     20 H2          1.0039    1.9031    0.0027 H         1 <0>         0.0844
     21 H3         -0.5459    1.8868   -0.8726 H         1 <0>         0.1082
     22 H4         -0.5289    1.8773    0.9072 H         1 <0>         0.0861
     23 H5          2.6595   -0.1764   -0.4272 H         1 <0>         0.1306
     24 H6          3.8239   -0.9702   -2.4460 H         1 <0>         0.1537
     25 H7         -1.1085   -0.9082   -2.2885 H         1 <0>         0.1449
     26 H8         -1.0504   -1.5862   -4.6683 H         1 <0>         0.4217
     27 H9          2.0710   -3.8010   -4.8373 H         1 <0>         0.1098
     28 H10         2.4483   -2.9517   -6.3547 H         1 <0>         0.1573
     29 H11         0.7982   -1.4950    1.1455 H         1 <0>         0.4300
     30 H12        -0.1324    0.9660    2.4481 H         1 <0>         0.1355
     31 H13        -1.0328   -0.5668    2.3589 H         1 <0>         0.1345
     32 H14         0.8710   -1.6983    3.5452 H         1 <0>         0.0942
     33 H15         1.8727    1.1687    3.8520 H         1 <0>         0.0734
     34 H16         2.5708   -0.2650    4.6430 H         1 <0>         0.0841
     35 H17         2.6444   -0.1011    2.8721 H         1 <0>         0.0509
     36 H18        -1.1003   -0.8630    4.7961 H         1 <0>         0.0681
     37 H19         0.3840   -0.7099    5.7666 H         1 <0>         0.0782
     38 H20        -0.3141    0.7238    4.9756 H         1 <0>         0.0684
     39 H21         1.6317   -0.0761    1.2281 H         1 <0>         0.4230
@<TRIPOS>BOND
     1    1    2 1
     2    1   20 1
     3    1   21 1
     4    1   22 1
     5    2    3 1
     6    2    4 1
     7    2   15 1
     8    4    9 ar
     9    4    5 ar
    10    5    6 ar
    11    5   23 1
    12    6    7 ar
    13    6   24 1
    14    7   14 1
    15    7    8 ar
    16    8    9 ar
    17    8   10 1
    18    9   25 1
    19   10   11 am
    20   10   26 1
    21   11   12 2
    22   11   13 1
    23   13   14 1
    24   13   27 1
    25   13   28 1
    26   15   16 1
    27   15   29 1
    28   15   39 1
    29   16   17 1
    30   16   30 1
    31   16   31 1
    32   17   18 1
    33   17   19 1
    34   17   32 1
    35   18   33 1
    36   18   34 1
    37   18   35 1
    38   19   36 1
    39   19   37 1
    40   19   38 1
@<TRIPOS>MOLECULE
ZINC43413931
   45    46     0     0     0
SMALL
USER_CHARGES

@<TRIPOS>ATOM
      1 C1         -2.3649   -3.8432    5.8475 C.3       1 <0>        -0.0962
      2 C2         -1.2950   -3.3829    4.8912 C.2       1 <0>         0.2019
      3 N1         -0.4964   -2.3638    5.0562 N.2       1 <0>        -0.2836
      4 N2          0.2912   -2.2627    4.0447 N.2       1 <0>        -0.3205
      5 C3          0.0308   -3.2128    3.1884 C.2       1 <0>         0.1505
      6 N3         -0.9798   -3.9538    3.7035 N.pl3     1 <0>        -0.4511
      7 C4         -1.6067   -5.1313    3.0979 C.3       1 <0>         0.1078
      8 C5         -2.6018   -5.7440    4.0854 C.3       1 <0>        -0.1836
      9 C6         -2.3432   -4.7176    1.8222 C.3       1 <0>        -0.1741
     10 C7          0.7287   -3.4457    1.8732 C.3       1 <0>        -0.0532
     11 C8          2.0071   -4.2523    2.1101 C.3       1 <0>        -0.0745
     12 C9          2.8017   -4.3434    0.8058 C.3       1 <0>        -0.1219
     13 C10         1.9521   -5.0360   -0.2617 C.3       1 <0>        -0.1241
     14 C11         1.5863   -6.4441    0.2121 C.3       1 <0>        -0.1242
     15 C12         0.7917   -6.3530    1.5164 C.3       1 <0>        -0.1371
     16 C13         1.6413   -5.6603    2.5839 C.3       1 <0>        -0.1125
     17 C14         2.8567   -3.5597    3.1775 C.3       1 <0>         0.0014
     18 N4          3.1160   -2.1716    2.7724 N.4       1 <0>        -0.6360
     19 H1         -1.9757   -4.6516    6.4664 H         1 <0>         0.0926
     20 H2         -2.6658   -3.0110    6.4839 H         1 <0>         0.0972
     21 H3         -3.2270   -4.1997    5.2839 H         1 <0>         0.1007
     22 H4         -0.8394   -5.8656    2.8525 H         1 <0>         0.1169
     23 H5         -2.8956   -6.7344    3.7377 H         1 <0>         0.0888
     24 H6         -2.1351   -5.8273    5.0670 H         1 <0>         0.0813
     25 H7         -3.4835   -5.1070    4.1551 H         1 <0>         0.0826
     26 H8         -1.6230   -4.3587    1.0870 H         1 <0>         0.0655
     27 H9         -2.8786   -5.5763    1.4172 H         1 <0>         0.0916
     28 H10        -3.0527   -3.9232    2.0537 H         1 <0>         0.0720
     29 H11         0.0688   -3.9987    1.2047 H         1 <0>         0.1173
     30 H12         0.9826   -2.4867    1.4218 H         1 <0>         0.0968
     31 H13         3.0622   -3.3402    0.4683 H         1 <0>         0.0641
     32 H14         3.7124   -4.9180    0.9745 H         1 <0>         0.0884
     33 H15         1.0413   -4.4614   -0.4304 H         1 <0>         0.0680
     34 H16         2.5181   -5.1009   -1.1909 H         1 <0>         0.0790
     35 H17         0.9811   -6.9375   -0.5483 H         1 <0>         0.0744
     36 H18         2.4971   -7.0186    0.3808 H         1 <0>         0.0710
     37 H19        -0.1190   -5.7784    1.3477 H         1 <0>         0.0717
     38 H20         0.5312   -7.3561    1.8540 H         1 <0>         0.0791
     39 H21         2.5521   -6.2349    2.7526 H         1 <0>         0.0851
     40 H22         1.0753   -5.5955    3.5131 H         1 <0>         0.0685
     41 H23         2.3230   -3.5671    4.1279 H         1 <0>         0.1333
     42 H24         3.8032   -4.0887    3.2882 H         1 <0>         0.1384
     43 H25         3.5375   -2.1620    1.8557 H         1 <0>         0.4286
     44 H26         2.2465   -1.6603    2.7481 H         1 <0>         0.4388
     45 H27         3.7421   -1.7392    3.4350 H         1 <0>         0.4395
@<TRIPOS>BOND
     1    1    2 1
     2    1   19 1
     3    1   20 1
     4    1   21 1
     5    2    6 1
     6    2    3 2
     7    3    4 1
     8    4    5 2
     9    5    6 1
    10    5   10 1
    11    6    7 1
    12    7    8 1
    13    7    9 1
    14    7   22 1
    15    8   23 1
    16    8   24 1
    17    8   25 1
    18    9   26 1
    19    9   27 1
    20    9   28 1
    21   10   11 1
    22   10   29 1
    23   10   30 1
    24   11   16 1
    25   11   12 1
    26   11   17 1
    27   12   13 1
    28   12   31 1
    29   12   32 1
    30   13   14 1
    31   13   33 1
    32   13   34 1
    33   14   15 1
    34   14   35 1
    35   14   36 1
    36   15   16 1
    37   15   37 1
    38   15   38 1
    39   16   39 1
    40   16   40 1
    41   17   18 1
    42   17   41 1
    43   17   42 1
    44   18   43 1
    45   18   44 1
    46   18   45 1
@<TRIPOS>MOLECULE
ZINC22937041
   40    42     0     0     0
SMALL
USER_CHARGES

@<TRIPOS>ATOM
      1 C1         -0.0167    1.3796    0.0096 C.ar      1 <0>        -0.1090
      2 C2          1.1662    2.0887    0.0021 C.ar      1 <0>        -0.0852
      3 C3          2.3855    1.4066   -0.0131 C.ar      1 <0>        -0.0741
      4 C4          2.3967    0.0095   -0.0207 C.ar      1 <0>        -0.0838
      5 C5          1.2059   -0.6864   -0.0130 C.ar      1 <0>        -0.1027
      6 C6          0.0021   -0.0041    0.0020 C.ar      1 <0>        -0.2031
      7 C7         -1.2948   -0.7716    0.0107 C.3       1 <0>         0.0494
      8 N1         -1.7299   -1.0136   -1.3713 N.4       1 <0>        -0.5112
      9 C8         -2.9940   -1.7618   -1.3628 C.3       1 <0>         0.0137
     10 H1         -2.8741   -2.6749   -0.7798 H         1 <0>         0.1751
     11 C9         -4.0963   -0.8993   -0.7440 C.3       1 <0>        -0.0280
     12 N2         -5.1724   -0.6880   -1.7150 N.4       1 <0>        -0.3750
     13 C10        -4.6708    0.0211   -2.8945 C.3       1 <0>        -0.0213
     14 C11        -3.5875   -0.8107   -3.5847 C.3       1 <0>        -0.1574
     15 C12        -3.3899   -2.1187   -2.8016 C.3       1 <0>        -0.1188
     16 C13        -4.7298   -2.8654   -2.7637 C.3       1 <0>        -0.1322
     17 C14        -5.7781   -1.9651   -2.0996 C.3       1 <0>        -0.0151
     18 C15         3.6552    2.1581   -0.0217 C.2       1 <0>         0.5043
     19 O1          3.6420    3.3809   -0.0154 O.co2     1 <0>        -0.6661
     20 O2          4.7207    1.5581   -0.0350 O.co2     1 <0>        -0.6642
     21 H2         -0.9599    1.9055    0.0260 H         1 <0>         0.1184
     22 H3          1.1501    3.1686    0.0077 H         1 <0>         0.1420
     23 H4          3.3355   -0.5243   -0.0328 H         1 <0>         0.1434
     24 H5          1.2130   -1.7663   -0.0192 H         1 <0>         0.1243
     25 H6         -1.1491   -1.7253    0.5180 H         1 <0>         0.1420
     26 H7         -2.0556   -0.1936    0.5352 H         1 <0>         0.1298
     27 H8         -1.8647   -0.1308   -1.8409 H         1 <0>         0.4233
     28 H9         -4.4970   -1.4015    0.1365 H         1 <0>         0.1685
     29 H10        -3.6796    0.0642   -0.4504 H         1 <0>         0.1485
     30 H11        -5.4925    0.1933   -3.5897 H         1 <0>         0.1488
     31 H12        -4.2510    0.9795   -2.5889 H         1 <0>         0.1389
     32 H13        -3.8970   -1.0395   -4.6046 H         1 <0>         0.1283
     33 H14        -2.6524   -0.2510   -3.6015 H         1 <0>         0.0998
     34 H15        -2.6147   -2.7276   -3.2667 H         1 <0>         0.1434
     35 H16        -5.0433   -3.1051   -3.7797 H         1 <0>         0.1209
     36 H17        -4.6201   -3.7837   -2.1869 H         1 <0>         0.1137
     37 H18        -6.1693   -2.4617   -1.2117 H         1 <0>         0.1413
     38 H19        -6.5940   -1.7824   -2.7988 H         1 <0>         0.1438
     39 H20        -5.8825   -0.1146   -1.2849 H         1 <0>         0.4429
     40 H21        -1.0256   -1.5487   -1.8569 H         1 <0>         0.4426
@<TRIPOS>BOND
     1    1    6 ar
     2    1    2 ar
     3    1   21 1
     4    2    3 ar
     5    2   22 1
     6    3    4 ar
     7    3   18 1
     8    4    5 ar
     9    4   23 1
    10    5    6 ar
    11    5   24 1
    12    6    7 1
    13    7    8 1
    14    7   25 1
    15    7   26 1
    16    8    9 1
    17    8   27 1
    18    8   40 1
    19    9   10 1
    20    9   15 1
    21    9   11 1
    22   11   12 1
    23   11   28 1
    24   11   29 1
    25   12   17 1
    26   12   13 1
    27   12   39 1
    28   13   14 1
    29   13   30 1
    30   13   31 1
    31   14   15 1
    32   14   32 1
    33   14   33 1
    34   15   16 1
    35   15   34 1
    36   16   17 1
    37   16   35 1
    38   16   36 1
    39   17   37 1
    40   17   38 1
    41   18   19 2
    42   18   20 1
@<TRIPOS>MOLECULE
ZINC51360074
   46    47     0     0     0
SMALL
USER_CHARGES

@<TRIPOS>ATOM
      1 C1         -0.0187    1.5258    0.0104 C.3       1 <0>        -0.1676
      2 C2          0.0021   -0.0041    0.0020 C.3       1 <0>         0.1673
      3 C3          0.7421   -0.5109    1.2415 C.3       1 <0>        -0.1675
      4 C4         -1.4333   -0.5336    0.0129 C.3       1 <0>        -0.1618
      5 N1          0.6878   -0.4765   -1.2033 N.am      1 <0>        -0.6966
      6 C5          1.9715   -0.1323   -1.4270 C.2       1 <0>         0.5015
      7 O1          2.5590    0.5687   -0.6305 O.2       1 <0>        -0.5222
      8 C6          2.6769   -0.6183   -2.6669 C.3       1 <0>        -0.0322
      9 N2          4.0550   -0.1098   -2.6773 N.4       1 <0>        -0.3747
     10 C7          4.8149   -0.7090   -1.5595 C.3       1 <0>        -0.0044
     11 C8          5.5488   -1.9212   -2.1851 C.3       1 <0>        -0.1461
     12 C9          5.9201   -1.3729   -3.5881 C.3       1 <0>        -0.1216
     13 C10         4.7116   -0.4818   -3.9440 C.3       1 <0>         0.0334
     14 H1          4.0153   -1.0355   -4.5739 H         1 <0>         0.1425
     15 C11         5.1891    0.7764   -4.6718 C.3       1 <0>         0.0617
     16 H2          5.9096    1.3115   -4.0532 H         1 <0>         0.0873
     17 C12         3.9857    1.6901   -4.9856 C.3       1 <0>        -0.1599
     18 C13         4.3274    2.2473   -6.3926 C.3       1 <0>        -0.1505
     19 C14         5.0247    1.0304   -7.0502 C.3       1 <0>         0.0448
     20 N3          5.8086    0.4073   -5.9579 N.3       1 <0>        -0.6709
     21 H3          1.0039    1.9031    0.0027 H         1 <0>         0.0762
     22 H4         -0.5459    1.8868   -0.8726 H         1 <0>         0.0584
     23 H5         -0.5289    1.8773    0.9072 H         1 <0>         0.0746
     24 H6          0.2319   -0.1594    2.1383 H         1 <0>         0.0747
     25 H7          0.7568   -1.6008    1.2356 H         1 <0>         0.0587
     26 H8          1.7647   -0.1336    1.2338 H         1 <0>         0.0760
     27 H9         -1.9605   -0.1726   -0.8702 H         1 <0>         0.0670
     28 H10        -1.4185   -1.6235    0.0069 H         1 <0>         0.0671
     29 H11        -1.9435   -0.1821    0.9097 H         1 <0>         0.0842
     30 H12         0.2179   -1.0371   -1.8404 H         1 <0>         0.4088
     31 H13         2.6917   -1.7081   -2.6729 H         1 <0>         0.1583
     32 H14         2.1497   -0.2572   -3.5499 H         1 <0>         0.1548
     33 H15         5.5347    0.0072   -1.1631 H         1 <0>         0.1351
     34 H16         4.1360   -1.0405   -0.7738 H         1 <0>         0.1340
     35 H17         6.4432   -2.1729   -1.6150 H         1 <0>         0.1181
     36 H18         4.8840   -2.7813   -2.2653 H         1 <0>         0.0950
     37 H19         6.8345   -0.7815   -3.5411 H         1 <0>         0.0979
     38 H20         6.0230   -2.1873   -4.3052 H         1 <0>         0.1164
     39 H21         3.0611    1.1136   -5.0135 H         1 <0>         0.0761
     40 H22         3.9154    2.4983   -4.2576 H         1 <0>         0.0844
     41 H23         3.4220    2.5189   -6.9354 H         1 <0>         0.0881
     42 H24         5.0077    3.0959   -6.3218 H         1 <0>         0.0785
     43 H25         4.2831    0.3298   -7.4340 H         1 <0>         0.0861
     44 H26         5.6871    1.3595   -7.8507 H         1 <0>         0.0830
     45 H27         6.7741    0.6987   -5.9910 H         1 <0>         0.3589
     46 H28         4.0479    0.8945   -2.5807 H         1 <0>         0.4268
@<TRIPOS>BOND
     1    1    2 1
     2    1   21 1
     3    1   22 1
     4    1   23 1
     5    2    3 1
     6    2    4 1
     7    2    5 1
     8    3   24 1
     9    3   25 1
    10    3   26 1
    11    4   27 1
    12    4   28 1
    13    4   29 1
    14    5    6 am
    15    5   30 1
    16    6    7 2
    17    6    8 1
    18    8    9 1
    19    8   31 1
    20    8   32 1
    21    9   13 1
    22    9   10 1
    23    9   46 1
    24   10   11 1
    25   10   33 1
    26   10   34 1
    27   11   12 1
    28   11   35 1
    29   11   36 1
    30   12   13 1
    31   12   37 1
    32   12   38 1
    33   13   14 1
    34   13   15 1
    35   15   16 1
    36   15   20 1
    37   15   17 1
    38   17   18 1
    39   17   39 1
    40   17   40 1
    41   18   19 1
    42   18   41 1
    43   18   42 1
    44   19   20 1
    45   19   43 1
    46   19   44 1
    47   20   45 1
@<TRIPOS>MOLECULE
ZINC62991139
   37    38     0     0     0
SMALL
USER_CHARGES

@<TRIPOS>ATOM
      1 C1          1.4551   -1.4206    1.6541 C.3       1 <0>        -0.1324
      2 C2          0.3824   -0.3036    1.6338 C.3       1 <0>        -0.1261
      3 C3          0.0086   -0.2158    0.1332 C.3       1 <0>        -0.1185
      4 C4          1.3485   -0.4218   -0.6031 C.3       1 <0>        -0.0952
      5 C5          2.2682   -1.1878    0.3639 C.3       1 <0>        -0.1289
      6 C6          1.1299   -1.2294   -1.8565 C.cat     1 <0>         0.5405
      7 N1          0.9970   -0.6320   -2.9957 N.pl3     1 <0>        -0.7290
      8 N2          1.0721   -2.5965   -1.7891 N.pl3     1 <0>        -0.6659
      9 C7          0.8596   -3.3817   -3.0075 C.3       1 <0>         0.0795
     10 C8          0.8361   -4.8708   -2.6571 C.3       1 <0>        -0.1030
     11 H1          1.7452   -5.1290   -2.1140 H         1 <0>         0.1147
     12 C9         -0.3876   -5.1683   -1.7747 C.3       1 <0>        -0.1372
     13 C10        -0.5638   -6.7117   -1.6955 C.3       1 <0>        -0.5775
     14 S1         -0.1995   -7.1826   -3.4391 S.o2      1 <0>         2.3778
     15 O1         -1.4167   -7.2229   -4.1711 O.2       1 <0>        -0.9214
     16 O2          0.6564   -8.3169   -3.4424 O.2       1 <0>        -0.9214
     17 C11         0.7612   -5.7040   -3.9592 C.3       1 <0>        -0.5896
     18 H2          2.0943   -1.3198    2.5312 H         1 <0>         0.0868
     19 H3          0.9833   -2.4030    1.6356 H         1 <0>         0.0727
     20 H4         -0.4834   -0.5886    2.2315 H         1 <0>         0.0859
     21 H5          0.8008    0.6402    1.9835 H         1 <0>         0.0834
     22 H6         -0.6968   -1.0037   -0.1309 H         1 <0>         0.0785
     23 H7         -0.4079    0.7642   -0.0995 H         1 <0>         0.0936
     24 H8          1.7897    0.5433   -0.8524 H         1 <0>         0.1353
     25 H9          3.1558   -0.5945    0.5839 H         1 <0>         0.0990
     26 H10         2.5565   -2.1437   -0.0734 H         1 <0>         0.0726
     27 H11         0.7812   -1.1450   -3.7901 H         1 <0>         0.4296
     28 H12         1.1718   -3.0446   -0.9346 H         1 <0>         0.4413
     29 H13        -0.0911   -3.0999   -3.4602 H         1 <0>         0.1045
     30 H14         1.6690   -3.1867   -3.7111 H         1 <0>         0.1083
     31 H15        -0.2276   -4.7642   -0.7751 H         1 <0>         0.1003
     32 H16        -1.2773   -4.7183   -2.2152 H         1 <0>         0.0969
     33 H17         0.1564   -7.1559   -1.0084 H         1 <0>         0.1453
     34 H18        -1.5843   -6.9783   -1.4202 H         1 <0>         0.1499
     35 H19         0.2339   -5.1551   -4.7395 H         1 <0>         0.1466
     36 H20         1.7587   -5.9899   -4.2930 H         1 <0>         0.1527
     37 H21         1.1131    0.3292   -3.0558 H         1 <0>         0.4504
@<TRIPOS>BOND
     1    1    5 1
     2    1    2 1
     3    1   18 1
     4    1   19 1
     5    2    3 1
     6    2   20 1
     7    2   21 1
     8    3    4 1
     9    3   22 1
    10    3   23 1
    11    4    5 1
    12    4    6 1
    13    4   24 1
    14    5   25 1
    15    5   26 1
    16    6    7 2
    17    6    8 1
    18    7   27 1
    19    7   37 1
    20    8    9 1
    21    8   28 1
    22    9   10 1
    23    9   29 1
    24    9   30 1
    25   10   11 1
    26   10   17 1
    27   10   12 1
    28   12   13 1
    29   12   31 1
    30   12   32 1
    31   13   14 1
    32   13   33 1
    33   13   34 1
    34   14   15 2
    35   14   16 2
    36   14   17 1
    37   17   35 1
    38   17   36 1
@<TRIPOS>MOLECULE
ZINC37819185
   42    42     0     0     0
SMALL
USER_CHARGES

@<TRIPOS>ATOM
      1 C1         -2.1206   -0.9833    0.3036 C.3       1 <0>        -0.1585
      2 C2         -0.6472   -1.3856    0.3933 C.3       1 <0>        -0.1368
      3 C3         -0.1971   -1.9751   -0.9449 C.3       1 <0>        -0.1630
      4 C4          1.2764   -2.3774   -0.8552 C.3       1 <0>         0.0465
      5 C5          2.1227   -1.1450   -0.5303 C.3       1 <0>        -0.1651
      6 C6          1.7197   -2.9580   -2.1733 C.2       1 <0>         0.4983
      7 O1          2.6561   -2.4673   -2.7678 O.2       1 <0>        -0.4726
      8 N1          1.0757   -4.0225   -2.6915 N.am      1 <0>        -0.6039
      9 C7         -0.1339   -4.5341   -2.0424 C.3       1 <0>         0.0492
     10 C8          1.5852   -4.6679   -3.9040 C.3       1 <0>         0.1848
     11 C9          2.4400   -5.8491   -3.5229 C.2       1 <0>        -0.2981
     12 C10         2.0104   -7.1856   -3.4373 C.2       1 <0>         0.1146
     13 N2          3.0292   -7.9156   -3.0810 N.2       1 <0>        -0.3069
     14 O2          4.1467   -7.0592   -2.9278 O.3       1 <0>        -0.0744
     15 C11         3.7496   -5.8092   -3.2108 C.2       1 <0>         0.1060
     16 C12         4.6160   -4.5765   -3.1811 C.3       1 <0>        -0.0949
     17 C13         0.6152   -7.6859   -3.7096 C.3       1 <0>        -0.0945
     18 N3          1.4462   -3.3812    0.2039 N.4       1 <0>        -0.6373
     19 H1         -2.2467   -0.2385   -0.4823 H         1 <0>         0.0672
     20 H2         -2.7236   -1.8613    0.0721 H         1 <0>         0.0621
     21 H3         -2.4413   -0.5634    1.2569 H         1 <0>         0.0705
     22 H4         -0.0442   -0.5076    0.6248 H         1 <0>         0.0868
     23 H5         -0.5211   -2.1304    1.1791 H         1 <0>         0.0581
     24 H6         -0.8000   -2.8531   -1.1764 H         1 <0>         0.1086
     25 H7         -0.3231   -1.2303   -1.7308 H         1 <0>         0.1209
     26 H8          1.8020   -0.7250    0.4231 H         1 <0>         0.0950
     27 H9          3.1724   -1.4316   -0.4663 H         1 <0>         0.0921
     28 H10         1.9967   -0.4002   -1.3161 H         1 <0>         0.1154
     29 H11        -1.0129   -4.0950   -2.5142 H         1 <0>         0.0941
     30 H12        -0.1701   -5.6187   -2.1448 H         1 <0>         0.0977
     31 H13        -0.1186   -4.2693   -0.9851 H         1 <0>         0.0554
     32 H14         0.7481   -5.0070   -4.5142 H         1 <0>         0.1045
     33 H15         2.1831   -3.9547   -4.4714 H         1 <0>         0.1112
     34 H16         4.6270   -4.1644   -2.1720 H         1 <0>         0.0875
     35 H17         5.6315   -4.8388   -3.4775 H         1 <0>         0.0937
     36 H18         4.2160   -3.8345   -3.8721 H         1 <0>         0.1072
     37 H19         0.5479   -8.0310   -4.7414 H         1 <0>         0.0982
     38 H20         0.3870   -8.5110   -3.0349 H         1 <0>         0.0892
     39 H21        -0.0983   -6.8776   -3.5496 H         1 <0>         0.0835
     40 H22         1.1003   -4.2724   -0.1188 H         1 <0>         0.4300
     41 H23         2.4249   -3.4639    0.4350 H         1 <0>         0.4393
     42 H24         0.9302   -3.0966    1.0229 H         1 <0>         0.4384
@<TRIPOS>BOND
     1    1    2 1
     2    1   19 1
     3    1   20 1
     4    1   21 1
     5    2    3 1
     6    2   22 1
     7    2   23 1
     8    3    4 1
     9    3   24 1
    10    3   25 1
    11    4    5 1
    12    4    6 1
    13    4   18 1
    14    5   26 1
    15    5   27 1
    16    5   28 1
    17    6    7 2
    18    6    8 am
    19    8    9 1
    20    8   10 1
    21    9   29 1
    22    9   30 1
    23    9   31 1
    24   10   11 1
    25   10   32 1
    26   10   33 1
    27   11   15 2
    28   11   12 1
    29   12   13 2
    30   12   17 1
    31   13   14 1
    32   14   15 1
    33   15   16 1
    34   16   34 1
    35   16   35 1
    36   16   36 1
    37   17   37 1
    38   17   38 1
    39   17   39 1
    40   18   40 1
    41   18   41 1
    42   18   42 1
@<TRIPOS>MOLECULE
ZINC48580131
   44    44     0     0     0
SMALL
USER_CHARGES

@<TRIPOS>ATOM
      1 C1         -0.5719    1.3507    0.3365 C.3       1 <0>        -0.1806
      2 C2         -0.0436   -0.0724    0.1454 C.3       1 <0>         0.0068
      3 H1          0.7096   -0.0776   -0.6424 H         1 <0>         0.1624
      4 C3          0.5724   -0.5567    1.4327 C.2       1 <0>         0.5119
      5 O1         -0.0982   -1.1762    2.2302 O.2       1 <0>        -0.4446
      6 N1          1.8690   -0.3010    1.6972 N.am      1 <0>        -0.6783
      7 C4          2.4200   -0.7340    2.8485 C.2       1 <0>         0.6926
      8 O2          1.7476   -1.3552    3.6480 O.2       1 <0>        -0.5116
      9 N2          3.7166   -0.4783    3.1130 N.am      1 <0>        -0.7202
     10 C5          4.3155   -0.9491    4.3644 C.3       1 <0>         0.1828
     11 C6          4.2178   -2.4744    4.4344 C.3       1 <0>        -0.1679
     12 C7          5.7859   -0.5293    4.4156 C.3       1 <0>        -0.1585
     13 C8          3.5682   -0.3352    5.5500 C.3       1 <0>        -0.1685
     14 N3         -1.1522   -0.9597   -0.2311 N.4       1 <0>        -0.3730
     15 C9         -1.7819   -0.4617   -1.4613 C.3       1 <0>        -0.0540
     16 C10        -0.6375   -2.3166   -0.4591 C.3       1 <0>         0.0188
     17 C11        -1.8079   -3.2721   -0.7002 C.3       1 <0>        -0.2118
     18 C12        -2.0238   -4.3952    0.3162 C.3       1 <0>        -0.1637
     19 C13        -1.4742   -4.7175   -1.0748 C.3       1 <0>        -0.1485
     20 H2          0.2507    2.0091    0.6159 H         1 <0>         0.1125
     21 H3         -1.0175    1.7010   -0.5945 H         1 <0>         0.1040
     22 H4         -1.3251    1.3560    1.1244 H         1 <0>         0.0930
     23 H5          2.4056    0.1948    1.0591 H         1 <0>         0.4166
     24 H6          4.2532    0.0174    2.4749 H         1 <0>         0.4007
     25 H7          4.7501   -2.9117    3.5898 H         1 <0>         0.0561
     26 H8          4.6634   -2.8246    5.3655 H         1 <0>         0.0724
     27 H9          3.1702   -2.7734    4.3979 H         1 <0>         0.0771
     28 H10         5.8555    0.5573    4.3658 H         1 <0>         0.0658
     29 H11         6.2315   -0.8796    5.3467 H         1 <0>         0.0831
     30 H12         6.3182   -0.9667    3.5710 H         1 <0>         0.0653
     31 H13         2.5207   -0.6342    5.5135 H         1 <0>         0.0775
     32 H14         4.0138   -0.6855    6.4811 H         1 <0>         0.0723
     33 H15         3.6378    0.7514    5.5001 H         1 <0>         0.0568
     34 H16        -2.6044   -1.1201   -1.7407 H         1 <0>         0.1321
     35 H17        -2.1637    0.5451   -1.2921 H         1 <0>         0.1304
     36 H18        -1.0447   -0.4406   -2.2639 H         1 <0>         0.1272
     37 H19         0.0162   -2.3155   -1.3313 H         1 <0>         0.1335
     38 H20        -0.0756   -2.6438    0.4157 H         1 <0>         0.1287
     39 H21        -2.6931   -2.8262   -1.1536 H         1 <0>         0.1276
     40 H22        -1.3321   -4.4533    1.1566 H         1 <0>         0.1074
     41 H23        -3.0513   -4.6883    0.5317 H         1 <0>         0.1113
     42 H24        -2.1401   -5.2227   -1.7745 H         1 <0>         0.1135
     43 H25        -0.4208   -4.9877   -1.1496 H         1 <0>         0.1061
     44 H26        -1.8346   -0.9793    0.5119 H         1 <0>         0.4349
@<TRIPOS>BOND
     1    1    2 1
     2    1   20 1
     3    1   21 1
     4    1   22 1
     5    2    3 1
     6    2    4 1
     7    2   14 1
     8    4    5 2
     9    4    6 am
    10    6    7 am
    11    6   23 1
    12    7    8 2
    13    7    9 am
    14    9   10 1
    15    9   24 1
    16   10   11 1
    17   10   12 1
    18   10   13 1
    19   11   25 1
    20   11   26 1
    21   11   27 1
    22   12   28 1
    23   12   29 1
    24   12   30 1
    25   13   31 1
    26   13   32 1
    27   13   33 1
    28   14   15 1
    29   14   16 1
    30   14   44 1
    31   15   34 1
    32   15   35 1
    33   15   36 1
    34   16   17 1
    35   16   37 1
    36   16   38 1
    37   17   19 1
    38   17   18 1
    39   17   39 1
    40   18   19 1
    41   18   40 1
    42   18   41 1
    43   19   42 1
    44   19   43 1
@<TRIPOS>MOLECULE
ZINC52631979
   40    41     0     0     0
SMALL
USER_CHARGES

@<TRIPOS>ATOM
      1 C1         -0.0187    1.5258    0.0104 C.3       1 <0>        -0.1492
      2 C2          0.0021   -0.0041    0.0020 C.3       1 <0>        -0.0890
      3 H1          0.5123   -0.3556   -0.8948 H         1 <0>         0.0709
      4 C3         -1.4333   -0.5336    0.0129 C.3       1 <0>        -0.1203
      5 C4         -1.4126   -2.0635    0.0045 C.3       1 <0>        -0.1190
      6 C5         -0.6726   -2.5703    1.2440 C.3       1 <0>        -0.1419
      7 C6          0.7628   -2.0407    1.2331 C.3       1 <0>         0.0954
      8 H2          1.2730   -2.3923    0.3363 H         1 <0>         0.0631
      9 C7          0.7421   -0.5109    1.2415 C.3       1 <0>        -0.1108
     10 O1          1.4540   -2.5141    2.3908 O.3       1 <0>        -0.3768
     11 C8          2.1201   -3.7638    2.1996 C.3       1 <0>         0.0506
     12 C9          2.8221   -4.1712    3.4965 C.3       1 <0>         0.1088
     13 N1          3.5051   -5.4524    3.3005 N.pl3     1 <0>        -0.2747
     14 C10         4.8162   -5.6954    3.5307 C.2       1 <0>         0.0056
     15 C11         5.0186   -6.9971    3.2202 C.2       1 <0>        -0.1132
     16 N2          3.8370   -7.4805    2.8206 N.2       1 <0>        -0.2404
     17 N3          2.9599   -6.5418    2.8849 N.2       1 <0>        -0.0487
     18 C12         6.3193   -7.7531    3.3072 C.3       1 <0>         0.1016
     19 N4          6.3930   -8.4542    4.5960 N.4       1 <0>        -0.6362
     20 H3          1.0039    1.9031    0.0027 H         1 <0>         0.0562
     21 H4         -0.5459    1.8868   -0.8726 H         1 <0>         0.0597
     22 H5         -0.5289    1.8773    0.9072 H         1 <0>         0.0574
     23 H6         -1.9435   -0.1821    0.9097 H         1 <0>         0.0666
     24 H7         -1.9605   -0.1726   -0.8702 H         1 <0>         0.0683
     25 H8         -2.4352   -2.4408    0.0122 H         1 <0>         0.0702
     26 H9         -0.9024   -2.4150   -0.8923 H         1 <0>         0.0628
     27 H10        -1.1828   -2.2188    2.1408 H         1 <0>         0.0743
     28 H11        -0.6578   -3.6602    1.2380 H         1 <0>         0.0627
     29 H12         1.7647   -0.1336    1.2338 H         1 <0>         0.0694
     30 H13         0.2319   -0.1594    2.1383 H         1 <0>         0.0746
     31 H14         1.3907   -4.5263    1.9263 H         1 <0>         0.0710
     32 H15         2.8575   -3.6643    1.4031 H         1 <0>         0.0588
     33 H16         3.5516   -3.4088    3.7698 H         1 <0>         0.1258
     34 H17         2.0848   -4.2707    4.2931 H         1 <0>         0.1221
     35 H18         5.5529   -4.9919    3.8895 H         1 <0>         0.2054
     36 H19         6.3730   -8.4785    2.4954 H         1 <0>         0.1514
     37 H20         7.1519   -7.0543    3.2256 H         1 <0>         0.1511
     38 H21         6.3433   -7.7827    5.3475 H         1 <0>         0.4343
     39 H22         5.6223   -9.1011    4.6715 H         1 <0>         0.4397
     40 H23         7.2639   -8.9604    4.6543 H         1 <0>         0.4423
@<TRIPOS>BOND
     1    1    2 1
     2    1   20 1
     3    1   21 1
     4    1   22 1
     5    2    3 1
     6    2    9 1
     7    2    4 1
     8    4    5 1
     9    4   23 1
    10    4   24 1
    11    5    6 1
    12    5   25 1
    13    5   26 1
    14    6    7 1
    15    6   27 1
    16    6   28 1
    17    7    8 1
    18    7    9 1
    19    7   10 1
    20    9   29 1
    21    9   30 1
    22   10   11 1
    23   11   12 1
    24   11   31 1
    25   11   32 1
    26   12   13 1
    27   12   33 1
    28   12   34 1
    29   13   17 1
    30   13   14 1
    31   14   15 2
    32   14   35 1
    33   15   16 1
    34   15   18 1
    35   16   17 2
    36   18   19 1
    37   18   36 1
    38   18   37 1
    39   19   38 1
    40   19   39 1
    41   19   40 1
@<TRIPOS>MOLECULE
ZINC50245171
   38    39     0     0     0
SMALL
USER_CHARGES

@<TRIPOS>ATOM
      1 C1          0.9726   -0.3458   -1.1303 C.3       1 <0>        -0.1483
      2 C2          0.0021   -0.0041    0.0020 C.3       1 <0>         0.1167
      3 H1         -0.2367    1.0589   -0.0325 H         1 <0>         0.0633
      4 C3         -1.2620   -0.8084   -0.1600 C.ar      1 <0>        -0.0875
      5 C4         -1.2666   -2.1573    0.1429 C.ar      1 <0>        -0.0450
      6 C5         -2.4259   -2.8950   -0.0057 C.ar      1 <0>        -0.1177
      7 C6         -3.5811   -2.2839   -0.4568 C.ar      1 <0>        -0.0514
      8 C7         -3.5768   -0.9351   -0.7587 C.ar      1 <0>        -0.0449
      9 C8         -2.4182   -0.1963   -0.6060 C.ar      1 <0>        -0.0530
     10 N1         -4.8134   -0.2809   -1.2422 N.pl3     1 <0>         0.0285
     11 O1         -5.8273   -0.9264   -1.3729 O.2       1 <0>        -0.1485
     12 O2         -4.8096    0.8989   -1.5063 O.3       1 <0>        -0.1550
     13 N2          0.6242   -0.3245    1.2936 N.3       1 <0>        -0.5083
     14 C9          1.8820    0.4424    1.4835 C.3       1 <0>         0.0352
     15 C10         2.0943    0.4011    3.0177 C.3       1 <0>        -0.1396
     16 C11         0.6551    0.5217    3.5692 C.3       1 <0>        -0.1302
     17 H2          0.4371    1.5561    3.8346 H         1 <0>         0.1022
     18 C12        -0.2571    0.0619    2.4168 C.3       1 <0>         0.0405
     19 C13         0.4751   -0.3872    4.7867 C.3       1 <0>         0.0006
     20 N3          1.3135    0.1004    5.8900 N.4       1 <0>        -0.6380
     21 H3          1.2909   -1.3839   -1.0351 H         1 <0>         0.0721
     22 H4          0.4754   -0.2047   -2.0900 H         1 <0>         0.0705
     23 H5          1.8430    0.3078   -1.0725 H         1 <0>         0.0661
     24 H6         -0.3642   -2.6348    0.4953 H         1 <0>         0.1480
     25 H7         -2.4294   -3.9489    0.2303 H         1 <0>         0.1501
     26 H8         -4.4869   -2.8604   -0.5736 H         1 <0>         0.1561
     27 H9         -2.4157    0.8584   -0.8384 H         1 <0>         0.1509
     28 H10         2.7102   -0.0431    0.9673 H         1 <0>         0.0983
     29 H11         1.7619    1.4696    1.1392 H         1 <0>         0.0579
     30 H12         2.5450   -0.5444    3.3194 H         1 <0>         0.0858
     31 H13         2.7047    1.2425    3.3454 H         1 <0>         0.0861
     32 H14        -0.9106    0.8792    2.1118 H         1 <0>         0.0632
     33 H15        -0.8523   -0.7946    2.7334 H         1 <0>         0.0897
     34 H16        -0.5706   -0.3797    5.0943 H         1 <0>         0.1360
     35 H17         0.7703   -1.4040    4.5279 H         1 <0>         0.1393
     36 H18         2.2815    0.0934    5.6053 H         1 <0>         0.4344
     37 H19         1.0402    1.0416    6.1296 H         1 <0>         0.4357
     38 H20         1.1948   -0.4990    6.6929 H         1 <0>         0.4401
@<TRIPOS>BOND
     1    1    2 1
     2    1   21 1
     3    1   22 1
     4    1   23 1
     5    2    3 1
     6    2    4 1
     7    2   13 1
     8    4    9 ar
     9    4    5 ar
    10    5    6 ar
    11    5   24 1
    12    6    7 ar
    13    6   25 1
    14    7    8 ar
    15    7   26 1
    16    8    9 ar
    17    8   10 1
    18    9   27 1
    19   10   11 2
    20   10   12 1
    21   13   18 1
    22   13   14 1
    23   14   15 1
    24   14   28 1
    25   14   29 1
    26   15   16 1
    27   15   30 1
    28   15   31 1
    29   16   17 1
    30   16   18 1
    31   16   19 1
    32   18   32 1
    33   18   33 1
    34   19   20 1
    35   19   34 1
    36   19   35 1
    37   20   36 1
    38   20   37 1
    39   20   38 1
@<TRIPOS>MOLECULE
ZINC63681307
   44    44     0     0     0
SMALL
USER_CHARGES

@<TRIPOS>ATOM
      1 C1         -0.0187    1.5258    0.0104 C.3       1 <0>        -0.1569
      2 C2          0.0021   -0.0041    0.0020 C.3       1 <0>        -0.1509
      3 C3          0.7182   -0.4975   -1.2568 C.3       1 <0>        -0.0114
      4 N1          0.7381   -1.9663   -1.2649 N.4       1 <0>        -0.3853
      5 C4         -0.6360   -2.4723   -1.3662 C.3       1 <0>        -0.0061
      6 C5         -0.6275   -4.0007   -1.2934 C.3       1 <0>        -0.1558
      7 C6          0.2093   -4.5566   -2.4492 C.3       1 <0>         0.1360
      8 C7          1.6196   -3.9643   -2.3764 C.3       1 <0>        -0.1615
      9 C8          1.5279   -2.4372   -2.4090 C.3       1 <0>        -0.0021
     10 N2          0.2847   -6.0157   -2.3419 N.am      1 <0>        -0.7265
     11 C9          0.5060   -6.7618   -3.4423 C.2       1 <0>         0.5177
     12 O1          0.6428   -6.2253   -4.5214 O.2       1 <0>        -0.5250
     13 C10         0.5836   -8.2628   -3.3320 C.3       1 <0>         0.0989
     14 N3          0.8296   -8.8378   -4.6567 N.am      1 <0>        -0.7277
     15 C11         0.9371  -10.1733   -4.8023 C.2       1 <0>         0.5159
     16 O2          0.8303  -10.8991   -3.8365 O.2       1 <0>        -0.5341
     17 C12         1.1902  -10.7648   -6.1651 C.3       1 <0>        -0.1425
     18 C13         1.2689  -12.2887   -6.0530 C.3       1 <0>        -0.1405
     19 H1          1.0039    1.9031    0.0027 H         1 <0>         0.0675
     20 H2         -0.5459    1.8868   -0.8726 H         1 <0>         0.0672
     21 H3         -0.5289    1.8773    0.9072 H         1 <0>         0.0777
     22 H4          0.5293   -0.3651    0.8851 H         1 <0>         0.0860
     23 H5         -1.0205   -0.3814    0.0098 H         1 <0>         0.0859
     24 H6          0.1910   -0.1364   -2.1398 H         1 <0>         0.1305
     25 H7          1.7408   -0.1202   -1.2645 H         1 <0>         0.1322
     26 H8         -1.2311   -2.0732   -0.5448 H         1 <0>         0.1386
     27 H9         -1.0699   -2.1565   -2.3149 H         1 <0>         0.1331
     28 H10        -0.1940   -4.3175   -0.3449 H         1 <0>         0.0960
     29 H11        -1.6485   -4.3745   -1.3706 H         1 <0>         0.1207
     30 H12        -0.2524   -4.2831   -3.3980 H         1 <0>         0.1071
     31 H13         2.0998   -4.2804   -1.4504 H         1 <0>         0.0920
     32 H14         2.2049   -4.3120   -3.2277 H         1 <0>         0.1176
     33 H15         1.0478   -2.1222   -3.3355 H         1 <0>         0.1322
     34 H16         2.5303   -2.0122   -2.3576 H         1 <0>         0.1352
     35 H17         0.1753   -6.4449   -1.4790 H         1 <0>         0.4112
     36 H18         1.3974   -8.5362   -2.6604 H         1 <0>         0.1028
     37 H19        -0.3573   -8.6472   -2.9380 H         1 <0>         0.1033
     38 H20         0.9151   -8.2573   -5.4292 H         1 <0>         0.4129
     39 H21         0.3764  -10.4915   -6.8366 H         1 <0>         0.0968
     40 H22         2.1311  -10.3804   -6.5590 H         1 <0>         0.0965
     41 H23         1.4520  -12.7165   -7.0387 H         1 <0>         0.0661
     42 H24         2.0828  -12.5621   -5.3814 H         1 <0>         0.0628
     43 H25         0.3281  -12.6731   -5.6591 H         1 <0>         0.0630
     44 H26         1.1553   -2.3007   -0.4092 H         1 <0>         0.4228
@<TRIPOS>BOND
     1    1    2 1
     2    1   19 1
     3    1   20 1
     4    1   21 1
     5    2    3 1
     6    2   22 1
     7    2   23 1
     8    3    4 1
     9    3   24 1
    10    3   25 1
    11    4    9 1
    12    4    5 1
    13    4   44 1
    14    5    6 1
    15    5   26 1
    16    5   27 1
    17    6    7 1
    18    6   28 1
    19    6   29 1
    20    7    8 1
    21    7   10 1
    22    7   30 1
    23    8    9 1
    24    8   31 1
    25    8   32 1
    26    9   33 1
    27    9   34 1
    28   10   11 am
    29   10   35 1
    30   11   12 2
    31   11   13 1
    32   13   14 1
    33   13   36 1
    34   13   37 1
    35   14   15 am
    36   14   38 1
    37   15   16 2
    38   15   17 1
    39   17   18 1
    40   17   39 1
    41   17   40 1
    42   18   41 1
    43   18   42 1
    44   18   43 1
@<TRIPOS>MOLECULE
ZINC14158640
   53    54     0     0     0
SMALL
USER_CHARGES
(1E)-3-(2-chloro-4-methyl-phenyl)-1-[[(4,6-dimethylpyrimidin-2-yl)amino]-(3-methoxypropylamino)methylene]thiourea
@<TRIPOS>ATOM
      1 C1         -2.9602    3.2971   -0.3718 C.3       1 <0>        -0.1170
      2 C2         -1.6522    2.5648   -0.5263 C.ar      1 <0>        -0.0617
      3 C3         -1.5411    1.2537   -0.1005 C.ar      1 <0>        -0.1118
      4 C4         -0.3425    0.5809   -0.2356 C.ar      1 <0>        -0.0468
      5 C5          0.7493    1.2186   -0.8100 C.ar      1 <0>         0.1135
      6 C6          0.6333    2.5344   -1.2420 C.ar      1 <0>        -0.0314
      7 C7         -0.5676    3.2035   -1.0984 C.ar      1 <0>        -0.1127
      8 Cl1         1.9946    3.3363   -1.9613 Cl        1 <0>        -0.0630
      9 N1          1.9629    0.5378   -0.9540 N.pl3     1 <0>        -0.6021
     10 C8          2.4700   -0.1617    0.0804 C.2       1 <0>         0.5558
     11 S1          1.5721   -0.3190    1.5295 S.2       1 <0>        -0.6469
     12 N2          3.6777   -0.7344   -0.0254 N.2       1 <0>        -0.5744
     13 C9          3.7912   -2.0506    0.0181 C.2       1 <0>         0.7091
     14 N3          2.6719   -2.8313    0.0547 N.pl3     1 <0>        -0.7219
     15 C10         2.7978   -4.2892    0.1263 C.3       1 <0>         0.1031
     16 C11         1.4044   -4.9205    0.1551 C.3       1 <0>        -0.1303
     17 C12         1.5358   -6.4430    0.2299 C.3       1 <0>         0.0650
     18 O1          0.2344   -7.0327    0.2568 O.3       1 <0>        -0.3902
     19 C13         0.2443   -8.4600    0.3268 C.3       1 <0>         0.0312
     20 N4          5.0310   -2.6309    0.0266 N.pl3     1 <0>        -0.6056
     21 C14         6.1694   -1.8368   -0.0106 C.ar      1 <0>         0.5505
     22 N5          6.0374   -0.5201   -0.0594 N.ar      1 <0>        -0.4888
     23 C15         7.1012    0.2655   -0.0902 C.ar      1 <0>         0.2087
     24 C16         8.3640   -0.3060   -0.0823 C.ar      1 <0>        -0.2566
     25 C17         8.4653   -1.6877   -0.0364 C.ar      1 <0>         0.2094
     26 N6          7.3609   -2.4147   -0.0018 N.ar      1 <0>        -0.5532
     27 C18         9.8173   -2.3533   -0.0256 C.3       1 <0>        -0.1070
     28 C19         6.9421    1.7633   -0.1390 C.3       1 <0>        -0.1061
     29 H1         -3.5702    3.1433   -1.2619 H         1 <0>         0.0757
     30 H2         -3.4893    2.9156    0.5015 H         1 <0>         0.0725
     31 H3         -2.7674    4.3622   -0.2431 H         1 <0>         0.0700
     32 H4         -2.3917    0.7565    0.3419 H         1 <0>         0.1351
     33 H5         -0.2557   -0.4415    0.1012 H         1 <0>         0.1498
     34 H6         -0.6589    4.2261   -1.4337 H         1 <0>         0.1375
     35 H7          2.4394    0.5691   -1.7983 H         1 <0>         0.4107
     36 H8          1.7934   -2.4208    0.0332 H         1 <0>         0.4264
     37 H9          3.3423   -4.6502   -0.7462 H         1 <0>         0.0758
     38 H10         3.3395   -4.5631    1.0316 H         1 <0>         0.0792
     39 H11         0.8599   -4.5595    1.0276 H         1 <0>         0.0882
     40 H12         0.8626   -4.6466   -0.7502 H         1 <0>         0.0820
     41 H13         2.0803   -6.8040   -0.6426 H         1 <0>         0.0535
     42 H14         2.0776   -6.7169    1.1352 H         1 <0>         0.0552
     43 H15        -0.7808   -8.8301    0.3434 H         1 <0>         0.0890
     44 H16         0.7620   -8.8628   -0.5437 H         1 <0>         0.0429
     45 H17         0.7593   -8.7757    1.2341 H         1 <0>         0.0437
     46 H18         5.1143   -3.5968    0.0585 H         1 <0>         0.4359
     47 H19         9.2494    0.3117   -0.1115 H         1 <0>         0.1494
     48 H20        10.1342   -2.5489   -1.0500 H         1 <0>         0.0878
     49 H21        10.5409   -1.6984    0.4598 H         1 <0>         0.0847
     50 H22         9.7547   -3.2941    0.5213 H         1 <0>         0.0837
     51 H23         6.8946    2.0900   -1.1778 H         1 <0>         0.0856
     52 H24         6.0233    2.0480    0.3738 H         1 <0>         0.0848
     53 H25         7.7933    2.2352    0.3518 H         1 <0>         0.0823
@<TRIPOS>BOND
     1    1    2 1
     2    1   29 1
     3    1   30 1
     4    1   31 1
     5    2    7 ar
     6    2    3 ar
     7    3    4 ar
     8    3   32 1
     9    4    5 ar
    10    4   33 1
    11    5    6 ar
    12    5    9 1
    13    6    7 ar
    14    6    8 1
    15    7   34 1
    16    9   10 1
    17    9   35 1
    18   10   11 2
    19   10   12 1
    20   12   13 2
    21   13   14 1
    22   13   20 1
    23   14   15 1
    24   14   36 1
    25   15   16 1
    26   15   37 1
    27   15   38 1
    28   16   17 1
    29   16   39 1
    30   16   40 1
    31   17   18 1
    32   17   41 1
    33   17   42 1
    34   18   19 1
    35   19   43 1
    36   19   44 1
    37   19   45 1
    38   20   21 1
    39   20   46 1
    40   21   26 ar
    41   21   22 ar
    42   22   23 ar
    43   23   24 ar
    44   23   28 1
    45   24   25 ar
    46   24   47 1
    47   25   26 ar
    48   25   27 1
    49   27   48 1
    50   27   49 1
    51   27   50 1
    52   28   51 1
    53   28   52 1
    54   28   53 1
@<TRIPOS>MOLECULE
ZINC08685865
   49    50     0     0     0
SMALL
USER_CHARGES

@<TRIPOS>ATOM
      1 C1          1.3919    1.6677    0.2163 C.3       1 <0>        -0.1693
      2 C2          1.6102    0.1540    0.2588 C.3       1 <0>         0.1179
      3 N1          1.4534   -0.4001   -1.0883 N.pl3     1 <0>        -0.6791
      4 C3          1.6020   -1.7237   -1.2941 C.2       1 <0>         0.5573
      5 N2          1.4577   -2.2334   -2.5334 N.pl3     1 <0>        -0.6193
      6 C4          1.7073   -3.5940   -2.7656 C.ar      1 <0>         0.1161
      7 C5          1.1773   -4.5520   -1.9129 C.ar      1 <0>        -0.1010
      8 C6          1.4240   -5.8952   -2.1418 C.ar      1 <0>         0.0812
      9 C7          2.2037   -6.2848   -3.2282 C.ar      1 <0>         0.1648
     10 C8          2.7331   -5.3269   -4.0810 C.ar      1 <0>        -0.1742
     11 C9          2.4820   -3.9836   -3.8549 C.ar      1 <0>         0.1158
     12 O1          2.9969   -3.0446   -4.6941 O.3       1 <0>        -0.3164
     13 C10         3.7822   -3.5157   -5.7911 C.3       1 <0>         0.0545
     14 C11         4.2713   -2.3242   -6.6170 C.3       1 <0>        -0.1510
     15 N3          2.4539   -7.6447   -3.4598 N.am      1 <0>        -0.6554
     16 C12         3.6287   -8.0322   -3.9947 C.2       1 <0>         0.6092
     17 O2          4.4355   -7.1975   -4.3610 O.2       1 <0>        -0.5101
     18 C13         3.9348   -9.4586   -4.1354 C.2       1 <0>        -0.2641
     19 C14         5.0734  -10.0618   -4.6478 C.2       1 <0>        -0.0603
     20 C15         5.0716  -11.4361   -4.6493 C.2       1 <0>        -0.1862
     21 C16         3.9898  -12.0943   -4.1646 C.2       1 <0>        -0.2175
     22 S1          2.9437  -10.8703   -3.6852 S.3       1 <0>         0.2149
     23 O3          0.9051   -6.8343   -1.3052 O.3       1 <0>        -0.3148
     24 C17         0.1155   -6.3635   -0.2113 C.3       1 <0>         0.0552
     25 C18        -0.3776   -7.5552    0.6119 C.3       1 <0>        -0.1513
     26 S2          1.9742   -2.7576    0.0187 S.2       1 <0>        -0.6240
     27 H1          2.1245    2.1219   -0.4509 H         1 <0>         0.0628
     28 H2          0.3871    1.8798   -0.1490 H         1 <0>         0.0625
     29 H3          1.5086    2.0799    1.2186 H         1 <0>         0.0844
     30 H4          2.6150   -0.0581    0.6242 H         1 <0>         0.0893
     31 H5          0.8776   -0.3002    0.9260 H         1 <0>         0.0892
     32 H6          1.2425    0.1858   -1.8321 H         1 <0>         0.3988
     33 H7          0.5727   -4.2499   -1.0705 H         1 <0>         0.1659
     34 H8          3.3377   -5.6289   -4.9235 H         1 <0>         0.1623
     35 H9          4.6398   -4.0714   -5.4119 H         1 <0>         0.0694
     36 H10         3.1753   -4.1681   -6.4188 H         1 <0>         0.0627
     37 H11         3.4137   -1.7685   -6.9962 H         1 <0>         0.0643
     38 H12         4.8783   -1.6717   -5.9893 H         1 <0>         0.0652
     39 H13         4.8704   -2.6834   -7.4537 H         1 <0>         0.0802
     40 H14         1.7814   -8.3067   -3.2351 H         1 <0>         0.4157
     41 H15         5.9084   -9.4881   -5.0222 H         1 <0>         0.1513
     42 H16         5.9200  -11.9843   -5.0316 H         1 <0>         0.1409
     43 H17         3.8372  -13.1614   -4.0981 H         1 <0>         0.1913
     44 H18         0.7202   -5.7116    0.4193 H         1 <0>         0.0735
     45 H19        -0.7403   -5.8072   -0.5938 H         1 <0>         0.0589
     46 H20        -0.9799   -7.1960    1.4464 H         1 <0>         0.0784
     47 H21        -0.9823   -8.2070   -0.0186 H         1 <0>         0.0644
     48 H22         0.4782   -8.1115    0.9945 H         1 <0>         0.0662
     49 H23         1.1813   -1.6592   -3.2648 H         1 <0>         0.4095
@<TRIPOS>BOND
     1    1    2 1
     2    1   27 1
     3    1   28 1
     4    1   29 1
     5    2    3 1
     6    2   30 1
     7    2   31 1
     8    3    4 1
     9    3   32 1
    10    4    5 1
    11    4   26 2
    12    5    6 1
    13    5   49 1
    14    6   11 ar
    15    6    7 ar
    16    7    8 ar
    17    7   33 1
    18    8    9 ar
    19    8   23 1
    20    9   10 ar
    21    9   15 1
    22   10   11 ar
    23   10   34 1
    24   11   12 1
    25   12   13 1
    26   13   14 1
    27   13   35 1
    28   13   36 1
    29   14   37 1
    30   14   38 1
    31   14   39 1
    32   15   16 am
    33   15   40 1
    34   16   17 2
    35   16   18 1
    36   18   22 1
    37   18   19 2
    38   19   20 1
    39   19   41 1
    40   20   21 2
    41   20   42 1
    42   21   22 1
    43   21   43 1
    44   23   24 1
    45   24   25 1
    46   24   44 1
    47   24   45 1
    48   25   46 1
    49   25   47 1
    50   25   48 1
@<TRIPOS>MOLECULE
ZINC57351397
   52    53     0     0     0
SMALL
USER_CHARGES

@<TRIPOS>ATOM
      1 C1         -0.0173    1.4248    0.0099 C.3       1 <0>         0.0199
      2 O1          0.0021   -0.0041    0.0020 O.3       1 <0>        -0.2820
      3 C2          0.6047   -0.6060   -1.0538 C.ar      1 <0>         0.1882
      4 C3          1.1724    0.1597   -2.0614 C.ar      1 <0>        -0.2212
      5 C4          1.7849   -0.4543   -3.1356 C.ar      1 <0>        -0.0467
      6 C5          1.8378   -1.8364   -3.2162 C.ar      1 <0>        -0.1658
      7 C6          1.2794   -2.6125   -2.2240 C.ar      1 <0>        -0.0445
      8 C7          0.6615   -2.0042   -1.1285 C.ar      1 <0>        -0.1788
      9 C8          0.0666   -2.8292   -0.0598 C.2       1 <0>         0.5687
     10 O2         -0.4750   -2.2961    0.8894 O.2       1 <0>        -0.5124
     11 N1          0.1235   -4.1736   -0.1356 N.am      1 <0>        -0.7139
     12 C9         -0.4673   -4.9927    0.9256 C.3       1 <0>         0.1490
     13 H1         -0.3376   -4.4926    1.8854 H         1 <0>         0.1257
     14 C10        -1.9596   -5.1868    0.6492 C.3       1 <0>        -0.1131
     15 C11        -2.6739   -3.8365    0.7350 C.3       1 <0>        -0.0746
     16 S1         -4.4432   -4.0665    0.4073 S.3       1 <0>        -0.2761
     17 C12        -5.1359   -2.3957    0.5451 C.3       1 <0>        -0.1144
     18 C13         0.2155   -6.3357    0.9626 C.2       1 <0>         0.5140
     19 O3          1.1077   -6.5841    0.1796 O.2       1 <0>        -0.5269
     20 N2         -0.1654   -7.2607    1.8658 N.am      1 <0>        -0.5147
     21 N3          0.4694   -8.5091    1.9002 N.pl3     1 <0>        -0.5382
     22 C14         0.0747   -9.4678    2.8362 C.ar      1 <0>         0.2168
     23 C15        -0.9512   -9.1869    3.7301 C.ar      1 <0>        -0.1689
     24 C16        -1.3392  -10.1371    4.6539 C.ar      1 <0>        -0.0631
     25 C17        -0.7079  -11.3672    4.6899 C.ar      1 <0>        -0.1264
     26 C18         0.3136  -11.6497    3.8021 C.ar      1 <0>        -0.1262
     27 C19         0.7029  -10.7060    2.8717 C.ar      1 <0>        -0.1382
     28 C20         0.9992  -12.9911    3.8457 C.3       1 <0>         0.5080
     29 F1          0.4324  -13.7717    4.8589 F         1 <0>        -0.1745
     30 F2          0.8394  -13.6367    2.6149 F         1 <0>        -0.1749
     31 F3          2.3622  -12.8099    4.1038 F         1 <0>        -0.1750
     32 H2          1.0053    1.8021    0.0021 H         1 <0>         0.0576
     33 H3         -0.5445    1.7859   -0.8732 H         1 <0>         0.0572
     34 H4         -0.5275    1.7763    0.9067 H         1 <0>         0.1039
     35 H5          1.1349    1.2376   -2.0058 H         1 <0>         0.1366
     36 H6          2.2252    0.1463   -3.9178 H         1 <0>         0.1321
     37 H7          2.3185   -2.3076   -4.0608 H         1 <0>         0.1329
     38 H8          1.3226   -3.6896   -2.2912 H         1 <0>         0.1337
     39 H9          0.5555   -4.5988   -0.8928 H         1 <0>         0.4106
     40 H10        -2.0929   -5.6056   -0.3483 H         1 <0>         0.0865
     41 H11        -2.3805   -5.8681    1.3886 H         1 <0>         0.0865
     42 H12        -2.5406   -3.4177    1.7325 H         1 <0>         0.0918
     43 H13        -2.2530   -3.1551   -0.0044 H         1 <0>         0.0892
     44 H14        -4.9509   -2.0071    1.5466 H         1 <0>         0.0776
     45 H15        -4.6633   -1.7446   -0.1903 H         1 <0>         0.0759
     46 H16        -6.2098   -2.4313    0.3619 H         1 <0>         0.1016
     47 H17        -0.8790   -7.0620    2.4921 H         1 <0>         0.4255
     48 H18         1.1830   -8.7078    1.2739 H         1 <0>         0.4380
     49 H19        -1.4443   -8.2265    3.7028 H         1 <0>         0.1261
     50 H20        -2.1363   -9.9193    5.3493 H         1 <0>         0.1396
     51 H21        -1.0134  -12.1085    5.4134 H         1 <0>         0.1397
     52 H22         1.4976  -10.9291    2.1752 H         1 <0>         0.1375
@<TRIPOS>BOND
     1    1    2 1
     2    1   32 1
     3    1   33 1
     4    1   34 1
     5    2    3 1
     6    3    8 ar
     7    3    4 ar
     8    4    5 ar
     9    4   35 1
    10    5    6 ar
    11    5   36 1
    12    6    7 ar
    13    6   37 1
    14    7    8 ar
    15    7   38 1
    16    8    9 1
    17    9   10 2
    18    9   11 am
    19   11   12 1
    20   11   39 1
    21   12   13 1
    22   12   14 1
    23   12   18 1
    24   14   15 1
    25   14   40 1
    26   14   41 1
    27   15   16 1
    28   15   42 1
    29   15   43 1
    30   16   17 1
    31   17   44 1
    32   17   45 1
    33   17   46 1
    34   18   19 2
    35   18   20 am
    36   20   21 1
    37   20   47 1
    38   21   22 1
    39   21   48 1
    40   22   27 ar
    41   22   23 ar
    42   23   24 ar
    43   23   49 1
    44   24   25 ar
    45   24   50 1
    46   25   26 ar
    47   25   51 1
    48   26   27 ar
    49   26   28 1
    50   27   52 1
    51   28   29 1
    52   28   30 1
    53   28   31 1
@<TRIPOS>MOLECULE
ZINC64628800
   63    63     0     0     0
SMALL
USER_CHARGES

@<TRIPOS>ATOM
      1 C1         -0.0187    1.5258    0.0104 C.3       1 <0>        -0.1524
      2 C2          0.0021   -0.0041    0.0020 C.3       1 <0>         0.0531
      3 O1         -1.3386   -0.4987    0.0122 O.3       1 <0>        -0.3042
      4 C3         -1.4984   -1.8492    0.0064 C.ar      1 <0>         0.1048
      5 C4         -0.3893   -2.6797   -0.0028 C.ar      1 <0>        -0.1688
      6 C5         -0.5535   -4.0523   -0.0082 C.ar      1 <0>        -0.1105
      7 C6         -1.8231   -4.5996   -0.0047 C.ar      1 <0>        -0.0870
      8 C7         -2.9339   -3.7768    0.0040 C.ar      1 <0>        -0.1582
      9 C8         -2.7762   -2.4001    0.0157 C.ar      1 <0>         0.1076
     10 O2         -3.8679   -1.5893    0.0304 O.3       1 <0>        -0.3035
     11 C9         -5.1479   -2.2246    0.0392 C.3       1 <0>         0.0523
     12 C10        -6.2459   -1.1592    0.0553 C.3       1 <0>        -0.1521
     13 C11        -1.9964   -6.0966   -0.0111 C.3       1 <0>         0.2149
     14 C12        -1.8130   -6.6252   -1.4351 C.3       1 <0>        -0.1003
     15 C13        -1.9890   -8.1451   -1.4415 C.3       1 <0>        -0.1364
     16 C14        -2.8565   -5.9871   -2.3543 C.3       1 <0>        -0.1469
     17 N1         -0.9973   -6.7076    0.8691 N.am      1 <0>        -0.7374
     18 C15        -1.2350   -7.9126    1.4241 C.2       1 <0>         0.7104
     19 O3         -2.2787   -8.4925    1.1943 O.2       1 <0>        -0.5838
     20 N2         -0.3159   -8.4747    2.2338 N.am      1 <0>        -0.7373
     21 C16        -0.5743   -9.7845    2.8371 C.3       1 <0>         0.1213
     22 C17         0.6007  -10.1845    3.6918 C.2       1 <0>         0.5086
     23 O4          1.5595   -9.4480    3.7876 O.2       1 <0>        -0.5366
     24 N3          0.5860  -11.3606    4.3497 N.am      1 <0>        -0.7244
     25 C18         1.7282  -11.7495    5.1807 C.3       1 <0>         0.1223
     26 C19         1.4583  -13.1174    5.8107 C.3       1 <0>        -0.1090
     27 C20         2.6993  -13.5798    6.5768 C.3       1 <0>        -0.1468
     28 C21         0.2746  -13.0105    6.7742 C.3       1 <0>        -0.1512
     29 H1          1.0039    1.9031    0.0027 H         1 <0>         0.0787
     30 H2         -0.5459    1.8868   -0.8726 H         1 <0>         0.0668
     31 H3         -0.5289    1.8773    0.9072 H         1 <0>         0.0667
     32 H4          0.5123   -0.3556   -0.8948 H         1 <0>         0.0616
     33 H5          0.5293   -0.3651    0.8851 H         1 <0>         0.0614
     34 H6          0.6036   -2.2546   -0.0062 H         1 <0>         0.1362
     35 H7          0.3118   -4.6985   -0.0154 H         1 <0>         0.1249
     36 H8         -3.9246   -4.2069    0.0063 H         1 <0>         0.1368
     37 H9         -5.2534   -2.8416   -0.8531 H         1 <0>         0.0623
     38 H10        -5.2364   -2.8511    0.9267 H         1 <0>         0.0617
     39 H11        -6.1573   -0.5327   -0.8322 H         1 <0>         0.0668
     40 H12        -7.2222   -1.6438    0.0620 H         1 <0>         0.0790
     41 H13        -6.1404   -0.5422    0.9476 H         1 <0>         0.0666
     42 H14        -2.9958   -6.3482    0.3440 H         1 <0>         0.0973
     43 H15        -0.8136   -6.3737   -1.7901 H         1 <0>         0.0709
     44 H16        -2.9884   -8.3966   -1.0865 H         1 <0>         0.0642
     45 H17        -1.8584   -8.5217   -2.4560 H         1 <0>         0.0460
     46 H18        -1.2457   -8.5997   -0.7867 H         1 <0>         0.0527
     47 H19        -2.7311   -4.9044   -2.3497 H         1 <0>         0.0579
     48 H20        -2.7258   -6.3637   -3.3688 H         1 <0>         0.0580
     49 H21        -3.8558   -6.2387   -1.9993 H         1 <0>         0.0562
     50 H22        -0.1647   -6.2450    1.0524 H         1 <0>         0.3966
     51 H23         0.5167   -8.0121    2.4172 H         1 <0>         0.4074
     52 H24        -1.4708   -9.7296    3.4546 H         1 <0>         0.0988
     53 H25        -0.7198  -10.5246    2.0502 H         1 <0>         0.0990
     54 H26        -0.1809  -11.9497    4.2731 H         1 <0>         0.4044
     55 H27         2.6247  -11.8044    4.5632 H         1 <0>         0.0703
     56 H28         1.8737  -11.0094    5.9675 H         1 <0>         0.0707
     57 H29         1.2252  -13.8386    5.0273 H         1 <0>         0.0782
     58 H30         2.9324  -12.8586    7.3601 H         1 <0>         0.0591
     59 H31         2.5071  -14.5543    7.0256 H         1 <0>         0.0623
     60 H32         3.5426  -13.6559    5.8904 H         1 <0>         0.0588
     61 H33         0.5077  -12.2893    7.5575 H         1 <0>         0.0583
     62 H34        -0.6095  -12.6811    6.2284 H         1 <0>         0.0547
     63 H35         0.0824  -13.9850    7.2230 H         1 <0>         0.0602
@<TRIPOS>BOND
     1    1    2 1
     2    1   29 1
     3    1   30 1
     4    1   31 1
     5    2    3 1
     6    2   32 1
     7    2   33 1
     8    3    4 1
     9    4    9 ar
    10    4    5 ar
    11    5    6 ar
    12    5   34 1
    13    6    7 ar
    14    6   35 1
    15    7    8 ar
    16    7   13 1
    17    8    9 ar
    18    8   36 1
    19    9   10 1
    20   10   11 1
    21   11   12 1
    22   11   37 1
    23   11   38 1
    24   12   39 1
    25   12   40 1
    26   12   41 1
    27   13   14 1
    28   13   17 1
    29   13   42 1
    30   14   15 1
    31   14   16 1
    32   14   43 1
    33   15   44 1
    34   15   45 1
    35   15   46 1
    36   16   47 1
    37   16   48 1
    38   16   49 1
    39   17   18 am
    40   17   50 1
    41   18   19 2
    42   18   20 am
    43   20   21 1
    44   20   51 1
    45   21   22 1
    46   21   52 1
    47   21   53 1
    48   22   23 2
    49   22   24 am
    50   24   25 1
    51   24   54 1
    52   25   26 1
    53   25   55 1
    54   25   56 1
    55   26   27 1
    56   26   28 1
    57   26   57 1
    58   27   58 1
    59   27   59 1
    60   27   60 1
    61   28   61 1
    62   28   62 1
    63   28   63 1
@<TRIPOS>MOLECULE
ZINC67305342
   61    62     0     0     0
SMALL
USER_CHARGES

@<TRIPOS>ATOM
      1 C1         -0.0187    1.5258    0.0104 C.3       1 <0>        -0.1548
      2 C2          0.0021   -0.0041    0.0020 C.3       1 <0>        -0.1250
      3 C3          0.7421   -0.5109    1.2415 C.3       1 <0>        -0.1220
      4 C4          0.7628   -2.0407    1.2331 C.3       1 <0>        -0.1172
      5 C5          1.5028   -2.5476    2.4727 C.3       1 <0>        -0.1248
      6 C6          1.5236   -4.0774    2.4642 C.3       1 <0>        -0.1216
      7 C7          2.2636   -4.5842    3.7038 C.3       1 <0>         0.1934
      8 C8          3.6989   -4.0547    3.6929 C.3       1 <0>        -0.1588
      9 C9          1.5582   -4.0982    4.9437 C.2       1 <0>         0.4680
     10 O1          1.9275   -3.0866    5.4915 O.2       1 <0>        -0.4955
     11 O2          0.5196   -4.7892    5.4394 O.3       1 <0>        -0.3458
     12 C10        -0.1017   -4.2706    6.6171 C.3       1 <0>         0.0609
     13 C11        -1.2565   -5.1856    7.0296 C.3       1 <0>        -0.1504
     14 N1          2.2834   -6.0491    3.6957 N.am      1 <0>        -0.7199
     15 C12         2.8857   -6.7204    4.6972 C.2       1 <0>         0.5246
     16 O3          3.4113   -6.1118    5.6052 O.2       1 <0>        -0.5224
     17 C13         2.9062   -8.2272    4.6890 C.3       1 <0>        -0.1016
     18 C14         1.4706   -8.7567    4.6992 C.3       1 <0>        -0.1187
     19 C15         1.4925  -10.2872    4.6783 C.3       1 <0>        -0.1101
     20 C16         2.2513  -10.8043    5.8955 C.3       1 <0>         0.1205
     21 C17         3.6771  -10.2644    5.9128 C.3       1 <0>        -0.1123
     22 C18         3.6462   -8.7340    5.9286 C.3       1 <0>        -0.1086
     23 C19         1.5283  -10.4269    7.1679 C.2       1 <0>         0.5311
     24 O4          1.2885   -9.3092    7.5717 O.2       1 <0>        -0.4487
     25 N2          1.2061  -11.5957    7.7596 N.am      1 <0>        -0.6818
     26 C20         1.6238  -12.6443    7.0399 C.2       1 <0>         0.7042
     27 O5          1.4504  -13.8016    7.3682 O.2       1 <0>        -0.5397
     28 N3          2.2578  -12.2728    5.9113 N.am      1 <0>        -0.7185
     29 H1          1.0039    1.9031    0.0027 H         1 <0>         0.0539
     30 H2         -0.5459    1.8868   -0.8726 H         1 <0>         0.0537
     31 H3         -0.5289    1.8773    0.9072 H         1 <0>         0.0535
     32 H4         -1.0205   -0.3814    0.0098 H         1 <0>         0.0602
     33 H5          0.5123   -0.3556   -0.8948 H         1 <0>         0.0609
     34 H6          1.7647   -0.1336    1.2338 H         1 <0>         0.0629
     35 H7          0.2319   -0.1594    2.1383 H         1 <0>         0.0614
     36 H8         -0.2598   -2.4180    1.2409 H         1 <0>         0.0623
     37 H9          1.2730   -2.3923    0.3363 H         1 <0>         0.0646
     38 H10         2.5254   -2.1703    2.4649 H         1 <0>         0.0754
     39 H11         0.9926   -2.1961    3.3695 H         1 <0>         0.0657
     40 H12         0.5010   -4.4547    2.4720 H         1 <0>         0.0807
     41 H13         2.0337   -4.4289    1.5675 H         1 <0>         0.0909
     42 H14         3.6842   -2.9648    3.6989 H         1 <0>         0.0817
     43 H15         4.2261   -4.4157    4.5760 H         1 <0>         0.0841
     44 H16         4.2091   -4.4062    2.7961 H         1 <0>         0.0727
     45 H17         0.6303   -4.2234    7.4234 H         1 <0>         0.0669
     46 H18        -0.4850   -3.2703    6.4153 H         1 <0>         0.0649
     47 H19        -1.7304   -4.7900    7.9279 H         1 <0>         0.0788
     48 H20        -1.9885   -5.2328    6.2233 H         1 <0>         0.0647
     49 H21        -0.8733   -6.1858    7.2314 H         1 <0>         0.0678
     50 H22         1.8631   -6.5358    2.9696 H         1 <0>         0.4061
     51 H23         3.4165   -8.5787    3.7922 H         1 <0>         0.1023
     52 H24         0.9627   -8.4128    5.6002 H         1 <0>         0.0903
     53 H25         0.9412   -8.3888    3.8203 H         1 <0>         0.0798
     54 H26         0.4704  -10.6652    4.7002 H         1 <0>         0.0805
     55 H27         1.9868  -10.6308    3.7696 H         1 <0>         0.0910
     56 H28         4.1915  -10.6263    6.8030 H         1 <0>         0.0799
     57 H29         4.2060  -10.6076    5.0236 H         1 <0>         0.0894
     58 H30         4.6663   -8.3498    5.9254 H         1 <0>         0.0829
     59 H31         3.1310   -8.3901    6.8255 H         1 <0>         0.0904
     60 H32         0.7312  -11.6674    8.6024 H         1 <0>         0.4336
     61 H33         2.6423  -12.8593    5.2411 H         1 <0>         0.4419
@<TRIPOS>BOND
     1    1    2 1
     2    1   29 1
     3    1   30 1
     4    1   31 1
     5    2    3 1
     6    2   32 1
     7    2   33 1
     8    3    4 1
     9    3   34 1
    10    3   35 1
    11    4    5 1
    12    4   36 1
    13    4   37 1
    14    5    6 1
    15    5   38 1
    16    5   39 1
    17    6    7 1
    18    6   40 1
    19    6   41 1
    20    7    8 1
    21    7    9 1
    22    7   14 1
    23    8   42 1
    24    8   43 1
    25    8   44 1
    26    9   10 2
    27    9   11 1
    28   11   12 1
    29   12   13 1
    30   12   45 1
    31   12   46 1
    32   13   47 1
    33   13   48 1
    34   13   49 1
    35   14   15 am
    36   14   50 1
    37   15   16 2
    38   15   17 1
    39   17   22 1
    40   17   18 1
    41   17   51 1
    42   18   19 1
    43   18   52 1
    44   18   53 1
    45   19   20 1
    46   19   54 1
    47   19   55 1
    48   20   28 1
    49   20   21 1
    50   20   23 1
    51   21   22 1
    52   21   56 1
    53   21   57 1
    54   22   58 1
    55   22   59 1
    56   23   24 2
    57   23   25 am
    58   25   26 am
    59   25   60 1
    60   26   27 2
    61   26   28 am
    62   28   61 1
@<TRIPOS>MOLECULE
ZINC08682457
   55    56     0     0     0
SMALL
USER_CHARGES

@<TRIPOS>ATOM
      1 C1         -0.0187    1.5258    0.0104 C.3       1 <0>        -0.1523
      2 C2          0.0021   -0.0041    0.0020 C.3       1 <0>         0.0526
      3 O1          0.6709   -0.4649   -1.1737 O.3       1 <0>        -0.3038
      4 C3          0.7768   -1.8109   -1.3363 C.ar      1 <0>         0.1106
      5 C4          0.2435   -2.6690   -0.3879 C.ar      1 <0>        -0.1719
      6 C5          0.3516   -4.0370   -0.5549 C.ar      1 <0>        -0.0964
      7 C6          0.9916   -4.5523   -1.6668 C.ar      1 <0>        -0.0773
      8 C7          1.5263   -3.7019   -2.6164 C.ar      1 <0>        -0.1550
      9 C8          1.4160   -2.3297   -2.4582 C.ar      1 <0>         0.1047
     10 O2          1.9361   -1.4917   -3.3945 O.3       1 <0>        -0.3033
     11 C9          2.5780   -2.0947   -4.5199 C.3       1 <0>         0.0533
     12 C10         3.0962   -1.0022   -5.4574 C.3       1 <0>        -0.1523
     13 C11         1.1070   -6.0444   -1.8436 C.3       1 <0>        -0.0834
     14 C12        -0.0882   -6.5538   -2.6071 C.2       1 <0>         0.5179
     15 O3         -0.9491   -5.7812   -2.9718 O.2       1 <0>        -0.5045
     16 N1         -0.2006   -7.8678   -2.8848 N.am      1 <0>        -0.5533
     17 N2         -1.3118   -8.3413   -3.5946 N.pl3     1 <0>        -0.4720
     18 C13        -1.4241   -9.6554   -3.8722 C.2       1 <0>         0.5615
     19 N3         -0.4675  -10.5140   -3.4670 N.pl3     1 <0>        -0.6811
     20 C14        -0.5897  -11.9423   -3.7687 C.3       1 <0>         0.1431
     21 C15        -1.4455  -12.6189   -2.6960 C.3       1 <0>        -0.1287
     22 C16        -1.5730  -14.1106   -3.0111 C.3       1 <0>        -0.1153
     23 C17        -0.1824  -14.7483   -3.0313 C.3       1 <0>        -0.1241
     24 C18         0.6734  -14.0718   -4.1041 C.3       1 <0>        -0.1147
     25 C19         0.8010  -12.5800   -3.7889 C.3       1 <0>        -0.1276
     26 S1         -2.7820  -10.2340   -4.7396 S.2       1 <0>        -0.5906
     27 H1          1.0039    1.9031    0.0027 H         1 <0>         0.0668
     28 H2         -0.5459    1.8868   -0.8726 H         1 <0>         0.0671
     29 H3         -0.5289    1.8773    0.9072 H         1 <0>         0.0790
     30 H4          0.5293   -0.3651    0.8851 H         1 <0>         0.0619
     31 H5         -1.0205   -0.3814    0.0098 H         1 <0>         0.0621
     32 H6         -0.2563   -2.2690    0.4819 H         1 <0>         0.1370
     33 H7         -0.0645   -4.7047    0.1850 H         1 <0>         0.1264
     34 H8          2.0261   -4.1070   -3.4839 H         1 <0>         0.1331
     35 H9          3.4131   -2.7058   -4.1775 H         1 <0>         0.0605
     36 H10         1.8634   -2.7219   -5.0528 H         1 <0>         0.0607
     37 H11         2.2611   -0.3911   -5.7998 H         1 <0>         0.0674
     38 H12         3.8108   -0.3750   -4.9244 H         1 <0>         0.0671
     39 H13         3.5858   -1.4622   -6.3157 H         1 <0>         0.0786
     40 H14         2.0171   -6.2754   -2.3972 H         1 <0>         0.1115
     41 H15         1.1449   -6.5244   -0.8657 H         1 <0>         0.1139
     42 H16         0.4879   -8.4857   -2.5931 H         1 <0>         0.4193
     43 H17         0.3018  -10.1861   -2.9755 H         1 <0>         0.3897
     44 H18        -1.0615  -12.0688   -4.7431 H         1 <0>         0.1193
     45 H19        -0.9736  -12.4924   -1.7216 H         1 <0>         0.0594
     46 H20        -2.4362  -12.1646   -2.6816 H         1 <0>         0.0816
     47 H21        -2.1827  -14.5926   -2.2469 H         1 <0>         0.0677
     48 H22        -2.0449  -14.2371   -3.9855 H         1 <0>         0.0703
     49 H23         0.2895  -14.6219   -2.0569 H         1 <0>         0.0617
     50 H24        -0.2732  -15.8111   -3.2559 H         1 <0>         0.0667
     51 H25         1.6641  -14.5261   -4.1185 H         1 <0>         0.0697
     52 H26         0.2015  -14.1982   -5.0785 H         1 <0>         0.0698
     53 H27         1.4106  -12.0981   -4.5532 H         1 <0>         0.0699
     54 H28         1.2728  -12.4536   -2.8145 H         1 <0>         0.0670
     55 H29        -2.0003   -7.7234   -3.8863 H         1 <0>         0.4587
@<TRIPOS>BOND
     1    1    2 1
     2    1   27 1
     3    1   28 1
     4    1   29 1
     5    2    3 1
     6    2   30 1
     7    2   31 1
     8    3    4 1
     9    4    9 ar
    10    4    5 ar
    11    5    6 ar
    12    5   32 1
    13    6    7 ar
    14    6   33 1
    15    7    8 ar
    16    7   13 1
    17    8    9 ar
    18    8   34 1
    19    9   10 1
    20   10   11 1
    21   11   12 1
    22   11   35 1
    23   11   36 1
    24   12   37 1
    25   12   38 1
    26   12   39 1
    27   13   14 1
    28   13   40 1
    29   13   41 1
    30   14   15 2
    31   14   16 am
    32   16   17 1
    33   16   42 1
    34   17   18 1
    35   17   55 1
    36   18   19 1
    37   18   26 2
    38   19   20 1
    39   19   43 1
    40   20   25 1
    41   20   21 1
    42   20   44 1
    43   21   22 1
    44   21   45 1
    45   21   46 1
    46   22   23 1
    47   22   47 1
    48   22   48 1
    49   23   24 1
    50   23   49 1
    51   23   50 1
    52   24   25 1
    53   24   51 1
    54   24   52 1
    55   25   53 1
    56   25   54 1
@<TRIPOS>MOLECULE
ZINC52737114
   48    49     0     0     0
SMALL
USER_CHARGES

@<TRIPOS>ATOM
      1 C1          2.7754   -5.5919   -4.3896 C.3       1 <0>        -0.1535
      2 C2          2.0670   -5.5033   -3.0364 C.3       1 <0>         0.0789
      3 O1          0.6537   -5.4506   -3.2411 O.3       1 <0>        -0.3605
      4 C3         -0.1206   -5.3700   -2.1425 C.2       1 <0>         0.6514
      5 O2          0.3898   -5.3451   -1.0400 O.2       1 <0>        -0.5499
      6 N1         -1.4616   -5.3170   -2.2656 N.am      1 <0>        -0.6497
      7 C4         -2.2702   -5.3304   -1.1234 C.ar      1 <0>         0.1710
      8 C5         -1.8472   -4.6921    0.0358 C.ar      1 <0>        -0.1154
      9 C6         -2.6454   -4.7050    1.1630 C.ar      1 <0>        -0.0846
     10 C7         -3.8662   -5.3526    1.1411 C.ar      1 <0>        -0.1281
     11 C8         -4.2937   -5.9923   -0.0138 C.ar      1 <0>         0.1065
     12 C9         -3.4979   -5.9763   -1.1491 C.ar      1 <0>        -0.1410
     13 O3         -5.4939   -6.6296   -0.0337 O.3       1 <0>        -0.2931
     14 C10        -5.4959   -7.9781    0.0148 C.2       1 <0>         0.5026
     15 O4         -4.4447   -8.5896   -0.0176 O.2       1 <0>        -0.4975
     16 C11        -6.7231   -8.6823    0.1034 C.2       1 <0>        -0.2214
     17 C12        -6.7252  -10.0324    0.1519 C.2       1 <0>         0.0281
     18 C13        -7.9973  -10.7624    0.2438 C.ar      1 <0>        -0.1296
     19 C14        -9.2087  -10.0614    0.2754 C.ar      1 <0>        -0.0482
     20 C15       -10.3975  -10.7500    0.3611 C.ar      1 <0>        -0.1504
     21 C16       -10.3966  -12.1392    0.4162 C.ar      1 <0>         0.1512
     22 C17        -9.1963  -12.8402    0.3856 C.ar      1 <0>        -0.2170
     23 C18        -8.0022  -12.1615    0.2942 C.ar      1 <0>        -0.0414
     24 O5        -11.5716  -12.8134    0.5006 O.3       1 <0>        -0.2852
     25 C19       -11.4988  -14.2396    0.5536 C.3       1 <0>         0.0368
     26 C20       -12.8905  -14.8106    0.6446 C.2       1 <0>         0.5190
     27 O6        -13.8502  -14.0692    0.6622 O.2       1 <0>        -0.5157
     28 N2        -13.0687  -16.1451    0.7063 N.am      1 <0>        -0.8493
     29 H1          3.8534   -5.6321   -4.2334 H         1 <0>         0.0847
     30 H2          2.4501   -6.4917   -4.9118 H         1 <0>         0.0677
     31 H3          2.5274   -4.7151   -4.9876 H         1 <0>         0.0678
     32 H4          2.3150   -6.3802   -2.4383 H         1 <0>         0.0712
     33 H5          2.3923   -4.6035   -2.5142 H         1 <0>         0.0715
     34 H6         -1.8664   -5.2695   -3.1458 H         1 <0>         0.4196
     35 H7         -0.8934   -4.1859    0.0557 H         1 <0>         0.1471
     36 H8         -2.3149   -4.2082    2.0632 H         1 <0>         0.1394
     37 H9         -4.4880   -5.3613    2.0241 H         1 <0>         0.1357
     38 H10        -3.8309   -6.4697   -2.0502 H         1 <0>         0.1338
     39 H11        -7.6563   -8.1395    0.1322 H         1 <0>         0.1442
     40 H12        -5.7920  -10.5753    0.1232 H         1 <0>         0.1403
     41 H13        -9.2105   -8.9822    0.2330 H         1 <0>         0.1409
     42 H14       -11.3326  -10.2101    0.3859 H         1 <0>         0.1407
     43 H15        -9.2010  -13.9193    0.4290 H         1 <0>         0.1345
     44 H16        -7.0706  -12.7071    0.2660 H         1 <0>         0.1353
     45 H17       -11.0113  -14.6123   -0.3473 H         1 <0>         0.0982
     46 H18       -10.9242  -14.5418    1.4292 H         1 <0>         0.0983
     47 H19       -12.3012  -16.7380    0.6922 H         1 <0>         0.4040
     48 H20       -13.9645  -16.5126    0.7648 H         1 <0>         0.4112
@<TRIPOS>BOND
     1    1    2 1
     2    1   29 1
     3    1   30 1
     4    1   31 1
     5    2    3 1
     6    2   32 1
     7    2   33 1
     8    3    4 1
     9    4    5 2
    10    4    6 am
    11    6    7 1
    12    6   34 1
    13    7   12 ar
    14    7    8 ar
    15    8    9 ar
    16    8   35 1
    17    9   10 ar
    18    9   36 1
    19   10   11 ar
    20   10   37 1
    21   11   12 ar
    22   11   13 1
    23   12   38 1
    24   13   14 1
    25   14   15 2
    26   14   16 1
    27   16   17 2
    28   16   39 1
    29   17   18 1
    30   17   40 1
    31   18   23 ar
    32   18   19 ar
    33   19   20 ar
    34   19   41 1
    35   20   21 ar
    36   20   42 1
    37   21   22 ar
    38   21   24 1
    39   22   23 ar
    40   22   43 1
    41   23   44 1
    42   24   25 1
    43   25   26 1
    44   25   45 1
    45   25   46 1
    46   26   27 2
    47   26   28 am
    48   28   47 1
    49   28   48 1
@<TRIPOS>MOLECULE
ZINC61475293
   53    54     0     0     0
SMALL
USER_CHARGES

@<TRIPOS>ATOM
      1 C1         -0.0187    1.5258    0.0104 C.3       1 <0>        -0.1501
      2 C2          0.0021   -0.0041    0.0020 C.3       1 <0>        -0.1126
      3 C3          0.7182   -0.4975   -1.2568 C.3       1 <0>        -0.0669
      4 C4          0.7386   -2.0043   -1.2651 C.2       1 <0>        -0.0025
      5 C5          1.7366   -2.8348   -0.7059 C.2       1 <0>        -0.2106
      6 C6          1.3546   -4.1428   -0.9415 C.2       1 <0>         0.1284
      7 N1          0.1892   -4.1301   -1.6072 N.pl3     1 <0>        -0.5250
      8 H1         -0.3005   -4.9156   -1.8973 H         1 <0>         0.4233
      9 C7         -0.2048   -2.8251   -1.8080 C.2       1 <0>        -0.0574
     10 C8         -1.4296   -2.3924   -2.4923 C.2       1 <0>         0.5967
     11 O1         -1.6725   -1.2063   -2.6129 O.2       1 <0>        -0.5131
     12 N2         -2.2848   -3.3091   -2.9870 N.am      1 <0>        -0.5273
     13 N3         -3.4536   -2.8963   -3.6399 N.am      1 <0>        -0.5154
     14 C9         -4.3088   -3.8130   -4.1345 C.2       1 <0>         0.5237
     15 O2         -4.0667   -4.9953   -4.0144 O.2       1 <0>        -0.5387
     16 C10        -5.5660   -3.3689   -4.8369 C.3       1 <0>        -0.1307
     17 C11        -6.3537   -4.5970   -5.2977 C.3       1 <0>         0.0758
     18 O3         -7.5458   -4.1759   -5.9638 O.3       1 <0>        -0.3165
     19 C12        -8.3646   -5.1511   -6.4386 C.ar      1 <0>         0.1290
     20 C13        -8.0304   -6.4859   -6.2620 C.ar      1 <0>        -0.2079
     21 C14        -8.8646   -7.4753   -6.7452 C.ar      1 <0>        -0.0804
     22 C15       -10.0315   -7.1362   -7.4048 C.ar      1 <0>        -0.1571
     23 C16       -10.3666   -5.8066   -7.5825 C.ar      1 <0>        -0.0811
     24 C17        -9.5388   -4.8135   -7.0958 C.ar      1 <0>        -0.1513
     25 C18         2.1174   -5.3731   -0.5226 C.3       1 <0>        -0.1027
     26 C19         2.9532   -2.3909   -0.0051 C.2       1 <0>         0.5459
     27 O4          2.9331   -2.2198    1.1980 O.2       1 <0>        -0.4909
     28 O5          4.0887   -2.1743   -0.6977 O.3       1 <0>        -0.3463
     29 C20         5.2306   -1.7450    0.0465 C.3       1 <0>         0.0306
     30 H2          1.0039    1.9031    0.0027 H         1 <0>         0.0526
     31 H3         -0.5459    1.8868   -0.8726 H         1 <0>         0.0570
     32 H4         -0.5289    1.8773    0.9072 H         1 <0>         0.0548
     33 H5          0.5293   -0.3651    0.8851 H         1 <0>         0.0616
     34 H6         -1.0205   -0.3814    0.0098 H         1 <0>         0.0636
     35 H7          0.1910   -0.1364   -2.1398 H         1 <0>         0.0966
     36 H8          1.7408   -0.1202   -1.2645 H         1 <0>         0.0707
     37 H9         -2.0912   -4.2547   -2.8908 H         1 <0>         0.4260
     38 H10        -3.6472   -1.9507   -3.7360 H         1 <0>         0.4374
     39 H11        -6.1770   -2.7815   -4.1515 H         1 <0>         0.1157
     40 H12        -5.3032   -2.7602   -5.7021 H         1 <0>         0.1158
     41 H13        -5.7427   -5.1843   -5.9832 H         1 <0>         0.0740
     42 H14        -6.6165   -5.2057   -4.4326 H         1 <0>         0.0740
     43 H15        -7.1187   -6.7513   -5.7475 H         1 <0>         0.1293
     44 H16        -8.6049   -8.5146   -6.6080 H         1 <0>         0.1254
     45 H17       -10.6822   -7.9113   -7.7822 H         1 <0>         0.1246
     46 H18       -11.2784   -5.5443   -8.0984 H         1 <0>         0.1303
     47 H19        -9.8032   -3.7751   -7.2309 H         1 <0>         0.1313
     48 H20         1.7919   -5.6817    0.4709 H         1 <0>         0.0905
     49 H21         1.9279   -6.1776   -1.2332 H         1 <0>         0.0818
     50 H22         3.1841   -5.1499   -0.5024 H         1 <0>         0.0895
     51 H23         5.0064   -0.8013    0.5438 H         1 <0>         0.0625
     52 H24         5.4820   -2.4983    0.7931 H         1 <0>         0.0619
     53 H25         6.0744   -1.6078   -0.6297 H         1 <0>         0.1041
@<TRIPOS>BOND
     1    1    2 1
     2    1   30 1
     3    1   31 1
     4    1   32 1
     5    2    3 1
     6    2   33 1
     7    2   34 1
     8    3    4 1
     9    3   35 1
    10    3   36 1
    11    4    9 2
    12    4    5 1
    13    5    6 2
    14    5   26 1
    15    6    7 1
    16    6   25 1
    17    7    8 1
    18    7    9 1
    19    9   10 1
    20   10   11 2
    21   10   12 am
    22   12   13 1
    23   12   37 1
    24   13   14 am
    25   13   38 1
    26   14   15 2
    27   14   16 1
    28   16   17 1
    29   16   39 1
    30   16   40 1
    31   17   18 1
    32   17   41 1
    33   17   42 1
    34   18   19 1
    35   19   24 ar
    36   19   20 ar
    37   20   21 ar
    38   20   43 1
    39   21   22 ar
    40   21   44 1
    41   22   23 ar
    42   22   45 1
    43   23   24 ar
    44   23   46 1
    45   24   47 1
    46   25   48 1
    47   25   49 1
    48   25   50 1
    49   26   27 2
    50   26   28 1
    51   28   29 1
    52   29   51 1
    53   29   52 1
    54   29   53 1
@<TRIPOS>MOLECULE
ZINC66065544
   55    56     0     0     0
SMALL
USER_CHARGES

@<TRIPOS>ATOM
      1 C1          1.0790    2.7347   -6.2868 C.3       1 <0>        -0.1662
      2 C2          1.1850    1.3053   -6.8221 C.3       1 <0>         0.1130
      3 N1          1.4677    0.3889   -5.7146 N.am      1 <0>        -0.7277
      4 C3          1.6039   -0.9311   -5.9503 C.2       1 <0>         0.5571
      5 O1          1.4921   -1.3613   -7.0816 O.2       1 <0>        -0.5286
      6 C4          1.8893   -1.8561   -4.8325 C.ar      1 <0>        -0.1158
      7 C5          2.0125   -1.3653   -3.5313 C.ar      1 <0>        -0.1016
      8 C6          2.2789   -2.2305   -2.4900 C.ar      1 <0>        -0.1046
      9 C7          2.4247   -3.5843   -2.7300 C.ar      1 <0>        -0.1180
     10 C8          2.3039   -4.0826   -4.0214 C.ar      1 <0>         0.1398
     11 C9          2.0307   -3.2223   -5.0737 C.ar      1 <0>        -0.0619
     12 N2          2.4524   -5.4538   -4.2591 N.am      1 <0>        -0.6715
     13 C10         2.9937   -5.8824   -5.4165 C.2       1 <0>         0.5074
     14 O2          3.4395   -5.0815   -6.2108 O.2       1 <0>        -0.5013
     15 C11         3.0452   -7.3569   -5.7239 C.3       1 <0>         0.1121
     16 N3          3.6752   -7.5616   -7.0305 N.pl3     1 <0>        -0.7340
     17 C12         3.8358   -8.8574   -7.5347 C.ar      1 <0>         0.1952
     18 C13         3.3938   -9.9488   -6.8012 C.ar      1 <0>        -0.1704
     19 C14         3.5530  -11.2274   -7.3015 C.ar      1 <0>        -0.1070
     20 C15         4.1522  -11.4222   -8.5321 C.ar      1 <0>        -0.1374
     21 C16         4.5953  -10.3391   -9.2688 C.ar      1 <0>        -0.1645
     22 C17         4.4347   -9.0543   -8.7770 C.ar      1 <0>         0.0638
     23 O3          4.8653   -7.9877   -9.5029 O.3       1 <0>        -0.3092
     24 C18         5.4698   -8.2652  -10.7677 C.3       1 <0>         0.0664
     25 C19         5.8872   -6.9520  -11.4326 C.3       1 <0>         0.0631
     26 O4          6.9098   -6.3277  -10.6537 O.3       1 <0>        -0.3818
     27 C20         7.3732   -5.0869  -11.1902 C.3       1 <0>         0.0570
     28 C21         8.4602   -4.5119  -10.2799 C.3       1 <0>        -0.1519
     29 H1          0.2732    2.7897   -5.5549 H         1 <0>         0.0625
     30 H2          2.0196    3.0161   -5.8135 H         1 <0>         0.0625
     31 H3          0.8686    3.4165   -7.1108 H         1 <0>         0.0764
     32 H4          0.2443    1.0239   -7.2954 H         1 <0>         0.0696
     33 H5          1.9908    1.2502   -7.5540 H         1 <0>         0.0696
     34 H6          1.5569    0.7321   -4.8118 H         1 <0>         0.4001
     35 H7          1.8996   -0.3084   -3.3398 H         1 <0>         0.1279
     36 H8          2.3742   -1.8490   -1.4842 H         1 <0>         0.1361
     37 H9          2.6335   -4.2566   -1.9110 H         1 <0>         0.1333
     38 H10         1.9320   -3.6084   -6.0775 H         1 <0>         0.1485
     39 H11         2.1657   -6.0957   -3.5907 H         1 <0>         0.4157
     40 H12         3.6262   -7.8680   -4.9562 H         1 <0>         0.0935
     41 H13         2.0326   -7.7598   -5.7417 H         1 <0>         0.0948
     42 H14         3.9812   -6.7992   -7.5463 H         1 <0>         0.4183
     43 H15         2.9257   -9.7995   -5.8395 H         1 <0>         0.1262
     44 H16         3.2089  -12.0764   -6.7295 H         1 <0>         0.1229
     45 H17         4.2749  -12.4231   -8.9190 H         1 <0>         0.1214
     46 H18         5.0630  -10.4948  -10.2298 H         1 <0>         0.1267
     47 H19         6.3484   -8.8933  -10.6205 H         1 <0>         0.0700
     48 H20         4.7549   -8.7844  -11.4060 H         1 <0>         0.0763
     49 H21         6.2667   -7.1562  -12.4337 H         1 <0>         0.0707
     50 H22         5.0251   -6.2884  -11.4992 H         1 <0>         0.0611
     51 H23         7.7835   -5.2525  -12.1863 H         1 <0>         0.0478
     52 H24         6.5419   -4.3846  -11.2517 H         1 <0>         0.0497
     53 H25         8.8137   -3.5655  -10.6891 H         1 <0>         0.0712
     54 H26         8.0499   -4.3464   -9.2837 H         1 <0>         0.0639
     55 H27         9.2915   -5.2143  -10.2183 H         1 <0>         0.0621
@<TRIPOS>BOND
     1    1    2 1
     2    1   29 1
     3    1   30 1
     4    1   31 1
     5    2    3 1
     6    2   32 1
     7    2   33 1
     8    3    4 am
     9    3   34 1
    10    4    5 2
    11    4    6 1
    12    6   11 ar
    13    6    7 ar
    14    7    8 ar
    15    7   35 1
    16    8    9 ar
    17    8   36 1
    18    9   10 ar
    19    9   37 1
    20   10   11 ar
    21   10   12 1
    22   11   38 1
    23   12   13 am
    24   12   39 1
    25   13   14 2
    26   13   15 1
    27   15   16 1
    28   15   40 1
    29   15   41 1
    30   16   17 1
    31   16   42 1
    32   17   22 ar
    33   17   18 ar
    34   18   19 ar
    35   18   43 1
    36   19   20 ar
    37   19   44 1
    38   20   21 ar
    39   20   45 1
    40   21   22 ar
    41   21   46 1
    42   22   23 1
    43   23   24 1
    44   24   25 1
    45   24   47 1
    46   24   48 1
    47   25   26 1
    48   25   49 1
    49   25   50 1
    50   26   27 1
    51   27   28 1
    52   27   51 1
    53   27   52 1
    54   28   53 1
    55   28   54 1
    56   28   55 1
@<TRIPOS>MOLECULE
ZINC67202371
   61    61     0     0     0
SMALL
USER_CHARGES

@<TRIPOS>ATOM
      1 C1         -0.3376    3.5547   -1.4234 C.3       1 <0>        -0.1864
      2 C2         -0.5110    2.0395   -1.3010 C.3       1 <0>         0.1346
      3 C3          0.0368    1.5708    0.0485 C.3       1 <0>        -0.1863
      4 C4         -1.9966    1.6866   -1.3987 C.3       1 <0>        -0.1408
      5 O1          0.2028    1.3916   -2.3558 O.3       1 <0>        -0.3602
      6 C5          1.5317    1.6002   -2.4127 C.2       1 <0>         0.6481
      7 O2          2.0706    2.3129   -1.5893 O.2       1 <0>        -0.5646
      8 N1          2.2642    1.0185   -3.3831 N.am      1 <0>        -0.7124
      9 C6          3.7102    1.2455   -3.4450 C.3       1 <0>         0.1350
     10 C7          4.2968    0.4765   -4.6305 C.3       1 <0>        -0.1316
     11 C8          5.8070    0.7136   -4.6952 C.3       1 <0>        -0.1167
     12 C9          6.3936   -0.0553   -5.8808 C.3       1 <0>        -0.1179
     13 C10         7.9037    0.1817   -5.9454 C.3       1 <0>        -0.1047
     14 C11         8.4904   -0.5872   -7.1310 C.3       1 <0>        -0.1423
     15 C12         9.9778   -0.3537   -7.1947 C.2       1 <0>         0.5245
     16 O3         10.5157    0.3577   -6.3728 O.2       1 <0>        -0.5317
     17 N2         10.7103   -0.9354   -8.1650 N.am      1 <0>        -0.5918
     18 C13        10.0811   -1.8803   -9.0910 C.3       1 <0>         0.0788
     19 C14         9.4330   -1.1211  -10.2200 C.2       1 <0>         0.4940
     20 O4          9.4036    0.0911  -10.1974 O.2       1 <0>        -0.5233
     21 N3          8.8861   -1.7893  -11.2548 N.am      1 <0>        -0.8540
     22 C15        12.1358   -0.6227   -8.2938 C.3       1 <0>         0.1357
     23 C16        12.9608   -1.9256   -8.3358 C.3       1 <0>        -0.1359
     24 C17        13.1615   -2.1995   -9.8470 C.3       1 <0>        -0.1295
     25 C18        13.3724   -0.7788  -10.4269 C.3       1 <0>        -0.1245
     26 C19        12.3975    0.1064   -9.6233 C.3       1 <0>        -0.1505
     27 H1          0.7207    3.8061   -1.3539 H         1 <0>         0.0874
     28 H2         -0.7279    3.8886   -2.3848 H         1 <0>         0.0591
     29 H3         -0.8821    4.0489   -0.6188 H         1 <0>         0.0706
     30 H4         -0.5076    2.0651    0.8531 H         1 <0>         0.0706
     31 H5         -0.0867    0.4914    0.1357 H         1 <0>         0.0591
     32 H6          1.0952    1.8222    0.1181 H         1 <0>         0.0874
     33 H7         -2.3869    2.0205   -2.3601 H         1 <0>         0.0665
     34 H8         -2.1201    0.6072   -1.3114 H         1 <0>         0.0665
     35 H9         -2.5411    2.1809   -0.5941 H         1 <0>         0.0811
     36 H10         1.8340    0.4495   -4.0404 H         1 <0>         0.4061
     37 H11         3.9058    2.3105   -3.5700 H         1 <0>         0.0717
     38 H12         4.1725    0.8971   -2.5214 H         1 <0>         0.0716
     39 H13         4.1012   -0.5884   -4.5055 H         1 <0>         0.0715
     40 H14         3.8345    0.8249   -5.5541 H         1 <0>         0.0716
     41 H15         6.0025    1.7786   -4.8203 H         1 <0>         0.0687
     42 H16         6.2693    0.3653   -3.7716 H         1 <0>         0.0686
     43 H17         6.1980   -1.1203   -5.7557 H         1 <0>         0.0631
     44 H18         5.9313    0.2930   -6.8043 H         1 <0>         0.0633
     45 H19         8.0993    1.2467   -6.0705 H         1 <0>         0.0714
     46 H20         8.3661   -0.1666   -5.0218 H         1 <0>         0.0709
     47 H21         8.2948   -1.6522   -7.0059 H         1 <0>         0.0893
     48 H22         8.0281   -0.2388   -8.0546 H         1 <0>         0.0951
     49 H23        10.8381   -2.5535   -9.4932 H         1 <0>         0.1192
     50 H24         9.3247   -2.4592   -8.5611 H         1 <0>         0.1095
     51 H25         8.9097   -2.7589  -11.2729 H         1 <0>         0.4025
     52 H26         8.4690   -1.3007  -11.9816 H         1 <0>         0.4046
     53 H27        12.4587   -0.0023   -7.4578 H         1 <0>         0.1052
     54 H28        13.9226   -1.7841   -7.8427 H         1 <0>         0.0813
     55 H29        12.4087   -2.7419   -7.8701 H         1 <0>         0.0726
     56 H30        14.0424   -2.8194  -10.0136 H         1 <0>         0.0717
     57 H31        12.2740   -2.6641  -10.2766 H         1 <0>         0.0643
     58 H32        14.4007   -0.4522  -10.2715 H         1 <0>         0.0685
     59 H33        13.1207   -0.7583  -11.4872 H         1 <0>         0.0645
     60 H34        11.4639    0.2276  -10.1727 H         1 <0>         0.0901
     61 H35        12.8482    1.0804   -9.4326 H         1 <0>         0.0693
@<TRIPOS>BOND
     1    1    2 1
     2    1   27 1
     3    1   28 1
     4    1   29 1
     5    2    3 1
     6    2    4 1
     7    2    5 1
     8    3   30 1
     9    3   31 1
    10    3   32 1
    11    4   33 1
    12    4   34 1
    13    4   35 1
    14    5    6 1
    15    6    7 2
    16    6    8 am
    17    8    9 1
    18    8   36 1
    19    9   10 1
    20    9   37 1
    21    9   38 1
    22   10   11 1
    23   10   39 1
    24   10   40 1
    25   11   12 1
    26   11   41 1
    27   11   42 1
    28   12   13 1
    29   12   43 1
    30   12   44 1
    31   13   14 1
    32   13   45 1
    33   13   46 1
    34   14   15 1
    35   14   47 1
    36   14   48 1
    37   15   16 2
    38   15   17 am
    39   17   18 1
    40   17   22 1
    41   18   19 1
    42   18   49 1
    43   18   50 1
    44   19   20 2
    45   19   21 am
    46   21   51 1
    47   21   52 1
    48   22   26 1
    49   22   23 1
    50   22   53 1
    51   23   24 1
    52   23   54 1
    53   23   55 1
    54   24   25 1
    55   24   56 1
    56   24   57 1
    57   25   26 1
    58   25   58 1
    59   25   59 1
    60   26   60 1
    61   26   61 1
@<TRIPOS>MOLECULE
ZINC15909493
   52    53     0     0     0
SMALL
USER_CHARGES
3-cyclopropyl-1-[[(2R)-4-methyl-2-(p-tolylsulfonylamino)pentanoyl]amino]thiourea
@<TRIPOS>ATOM
      1 C1         -6.3212    4.9721   -1.3571 C.3       1 <0>        -0.1278
      2 C2         -5.6280    3.9607   -0.4810 C.ar      1 <0>        -0.0232
      3 C3         -5.9315    2.6176   -0.6024 C.ar      1 <0>        -0.1384
      4 C4         -5.2956    1.6899    0.2013 C.ar      1 <0>        -0.0098
      5 C5         -4.3555    2.1052    1.1257 C.ar      1 <0>        -0.6856
      6 C6         -4.0555    3.4488    1.2505 C.ar      1 <0>        -0.0221
      7 C7         -4.6882    4.3761    0.4438 C.ar      1 <0>        -0.1397
      8 S1         -3.5449    0.9227    2.1501 S.o2      1 <0>         2.6877
      9 O1         -4.3438   -0.2522    2.1244 O.2       1 <0>        -0.9466
     10 O2         -3.2131    1.5921    3.3588 O.2       1 <0>        -0.9422
     11 N1         -2.1125    0.5372    1.4138 N.pl3     1 <0>        -1.0901
     12 C8         -1.0726    1.5569    1.2556 C.3       1 <0>         0.1556
     13 H1         -1.5326    2.5449    1.2352 H         1 <0>         0.1177
     14 C9         -0.3191    1.3180   -0.0544 C.3       1 <0>        -0.1214
     15 C10        -1.2609    1.5594   -1.2357 C.3       1 <0>        -0.0925
     16 C11        -0.4661    1.5010   -2.5418 C.3       1 <0>        -0.1493
     17 C12        -2.3467    0.4815   -1.2509 C.3       1 <0>        -0.1580
     18 C13        -0.1090    1.4752    2.4115 C.2       1 <0>         0.5021
     19 O3         -0.2747    0.6469    3.2817 O.2       1 <0>        -0.4899
     20 N2          0.9368    2.3228    2.4781 N.am      1 <0>        -0.5501
     21 N3          1.8326    2.2468    3.5526 N.pl3     1 <0>        -0.4676
     22 C14         2.8784    3.0944    3.6193 C.2       1 <0>         0.5654
     23 S2          3.9730    3.0016    4.9323 S.2       1 <0>        -0.5832
     24 N4          3.0624    4.0149    2.6523 N.pl3     1 <0>        -0.6588
     25 C15         4.1992    4.9362    2.7247 C.3       1 <0>         0.0711
     26 C16         3.9372    6.4084    2.4007 C.3       1 <0>        -0.1824
     27 C17         4.7102    5.5324    1.4116 C.3       1 <0>        -0.1818
     28 H2         -7.2286    5.3195   -0.8631 H         1 <0>         0.0815
     29 H3         -5.6562    5.8178   -1.5319 H         1 <0>         0.0738
     30 H4         -6.5802    4.5105   -2.3099 H         1 <0>         0.0744
     31 H5         -6.6657    2.2931   -1.3249 H         1 <0>         0.1347
     32 H6         -5.5330    0.6405    0.1066 H         1 <0>         0.1426
     33 H7         -3.3242    3.7737    1.9758 H         1 <0>         0.1356
     34 H8         -4.4508    5.4254    0.5385 H         1 <0>         0.1337
     35 H9         -1.9621   -0.3637    1.0873 H         1 <0>         0.4290
     36 H10         0.0434    0.2904   -0.0828 H         1 <0>         0.0891
     37 H11         0.5261    2.0034   -0.1176 H         1 <0>         0.0821
     38 H12        -1.7246    2.5408   -1.1361 H         1 <0>         0.0757
     39 H13        -0.0024    0.5196   -2.6414 H         1 <0>         0.0583
     40 H14        -1.1371    1.6730   -3.3834 H         1 <0>         0.0599
     41 H15         0.3074    2.2689   -2.5310 H         1 <0>         0.0557
     42 H16        -1.8812   -0.5036   -1.2168 H         1 <0>         0.0607
     43 H17        -2.9954    0.6070   -0.3840 H         1 <0>         0.0533
     44 H18        -2.9369    0.5731   -2.1627 H         1 <0>         0.0592
     45 H19         1.0692    2.9853    1.7821 H         1 <0>         0.4182
     46 H20         1.7001    1.5843    4.2486 H         1 <0>         0.4612
     47 H21         2.4422    4.0675    1.9083 H         1 <0>         0.3910
     48 H22         4.9358    4.7142    3.4970 H         1 <0>         0.1706
     49 H23         2.9191    6.6914    2.1336 H         1 <0>         0.0974
     50 H24         4.5017    7.1549    2.9594 H         1 <0>         0.1124
     51 H25         5.7829    5.7029    1.3200 H         1 <0>         0.1132
     52 H26         4.2008    5.2388    0.4937 H         1 <0>         0.0972
@<TRIPOS>BOND
     1    1    2 1
     2    1   28 1
     3    1   29 1
     4    1   30 1
     5    2    7 ar
     6    2    3 ar
     7    3    4 ar
     8    3   31 1
     9    4    5 ar
    10    4   32 1
    11    5    6 ar
    12    5    8 1
    13    6    7 ar
    14    6   33 1
    15    7   34 1
    16    8    9 2
    17    8   10 2
    18    8   11 1
    19   11   12 1
    20   11   35 1
    21   12   13 1
    22   12   14 1
    23   12   18 1
    24   14   15 1
    25   14   36 1
    26   14   37 1
    27   15   16 1
    28   15   17 1
    29   15   38 1
    30   16   39 1
    31   16   40 1
    32   16   41 1
    33   17   42 1
    34   17   43 1
    35   17   44 1
    36   18   19 2
    37   18   20 am
    38   20   21 1
    39   20   45 1
    40   21   22 1
    41   21   46 1
    42   22   23 2
    43   22   24 1
    44   24   25 1
    45   24   47 1
    46   25   27 1
    47   25   26 1
    48   25   48 1
    49   26   27 1
    50   26   49 1
    51   26   50 1
    52   27   51 1
    53   27   52 1
@<TRIPOS>MOLECULE
ZINC27252021
   53    54     0     0     0
SMALL
USER_CHARGES
(E)-N-[(1S)-2-(N'-(cyclopentylcarbamothioyl)hydrazino)-1-methyl-2-oxo-ethyl]-3-(4-methoxyphenyl)prop-2-enamide
@<TRIPOS>ATOM
      1 C1         -5.2490    0.5178    1.4668 C.3       1 <0>        -0.1629
      2 C2         -4.8820    0.8946    0.0301 C.3       1 <0>         0.1415
      3 H1         -4.7343   -0.0031   -0.5883 H         1 <0>         0.1217
      4 C3         -5.9753    1.7471   -0.5606 C.2       1 <0>         0.5224
      5 O1         -5.7276    2.8703   -0.9453 O.2       1 <0>        -0.5220
      6 N1         -7.2285    1.2614   -0.6614 N.am      1 <0>        -0.5525
      7 N2         -8.2449    2.0539   -1.2105 N.pl3     1 <0>        -0.4831
      8 C4         -9.4981    1.5682   -1.3113 C.2       1 <0>         0.5677
      9 S1        -10.7401    2.5367   -1.9823 S.2       1 <0>        -0.6060
     10 N3         -9.7734    0.3200   -0.8838 N.pl3     1 <0>        -0.6919
     11 C5        -11.1355   -0.2080   -0.9933 C.3       1 <0>         0.1359
     12 C6        -11.9503    0.1675    0.2616 C.3       1 <0>        -0.1329
     13 C7        -12.8404   -1.0731    0.5218 C.3       1 <0>        -0.1253
     14 C8        -11.8974   -2.2503    0.1695 C.3       1 <0>        -0.1203
     15 C9        -11.1019   -1.7452   -1.0519 C.3       1 <0>        -0.1269
     16 N4         -3.6233    1.6443    0.0282 N.am      1 <0>        -0.7266
     17 C10        -2.4471    0.9863    0.0190 C.2       1 <0>         0.5594
     18 O2         -2.4306   -0.2307    0.0123 O.2       1 <0>        -0.5491
     19 C11        -1.1905    1.7347    0.0171 C.2       1 <0>        -0.2307
     20 C12        -0.0126    1.0758    0.0080 C.2       1 <0>        -0.0015
     21 C13         1.2504    1.8281   -0.0001 C.ar      1 <0>        -0.1222
     22 C14         1.2341    3.2277    0.0018 C.ar      1 <0>        -0.0557
     23 C15         2.4196    3.9274    0.0001 C.ar      1 <0>        -0.2129
     24 C16         3.6315    3.2464   -0.0151 C.ar      1 <0>         0.1442
     25 C17         3.6531    1.8564   -0.0228 C.ar      1 <0>        -0.1558
     26 C18         2.4732    1.1472   -0.0154 C.ar      1 <0>        -0.0503
     27 O3          4.7976    3.9410   -0.0229 O.3       1 <0>        -0.3137
     28 C19         4.7035    5.3669   -0.0143 C.3       1 <0>         0.0212
     29 H2         -4.4509   -0.1045    1.8979 H         1 <0>         0.0835
     30 H3         -6.1941   -0.0451    1.4682 H         1 <0>         0.0687
     31 H4         -5.3659    1.4321    2.0672 H         1 <0>         0.0699
     32 H5         -7.4532    0.2427   -0.3125 H         1 <0>         0.4398
     33 H6         -8.0202    3.0726   -1.5594 H         1 <0>         0.4887
     34 H7         -8.9753   -0.3023   -0.4527 H         1 <0>         0.4000
     35 H8        -11.5442    0.2379   -1.9121 H         1 <0>         0.1226
     36 H9        -11.2643    0.3662    1.0982 H         1 <0>         0.0659
     37 H10       -12.5474    1.0680    0.0552 H         1 <0>         0.0843
     38 H11       -13.1569   -1.0829    1.5752 H         1 <0>         0.0706
     39 H12       -13.7276   -1.0305   -0.1272 H         1 <0>         0.0736
     40 H13       -11.2437   -2.4658    1.0275 H         1 <0>         0.0676
     41 H14       -12.4966   -3.1417   -0.0680 H         1 <0>         0.0723
     42 H15       -11.5645   -2.0866   -1.9897 H         1 <0>         0.0833
     43 H16       -10.0585   -2.0910   -1.0107 H         1 <0>         0.0692
     44 H17        -3.6382    2.7442    0.0343 H         1 <0>         0.4354
     45 H18        -1.2054    2.8346    0.0231 H         1 <0>         0.1320
     46 H19         0.0023   -0.0241    0.0066 H         1 <0>         0.1397
     47 H20         0.2931    3.7577    0.0092 H         1 <0>         0.1313
     48 H21         2.4082    5.0073    0.0061 H         1 <0>         0.1330
     49 H22         4.5972    1.3320   -0.0343 H         1 <0>         0.1364
     50 H23         2.4911    0.0674   -0.0218 H         1 <0>         0.1370
     51 H24         5.7142    5.8011   -0.0220 H         1 <0>         0.1050
     52 H25         4.1708    5.6937    0.8909 H         1 <0>         0.0591
     53 H26         4.1531    5.7034   -0.9053 H         1 <0>         0.0592
@<TRIPOS>BOND
     1    1    2 1
     2    1   29 1
     3    1   30 1
     4    1   31 1
     5    2    3 1
     6    2    4 1
     7    2   16 1
     8    4    5 2
     9    4    6 am
    10    6    7 1
    11    6   32 1
    12    7    8 1
    13    7   33 1
    14    8    9 2
    15    8   10 1
    16   10   11 1
    17   10   34 1
    18   11   15 1
    19   11   12 1
    20   11   35 1
    21   12   13 1
    22   12   36 1
    23   12   37 1
    24   13   14 1
    25   13   38 1
    26   13   39 1
    27   14   15 1
    28   14   40 1
    29   14   41 1
    30   15   42 1
    31   15   43 1
    32   16   17 am
    33   16   44 1
    34   17   18 2
    35   17   19 1
    36   19   20 2
    37   19   45 1
    38   20   21 1
    39   20   46 1
    40   21   26 ar
    41   21   22 ar
    42   22   23 ar
    43   22   47 1
    44   23   24 ar
    45   23   48 1
    46   24   25 ar
    47   24   27 1
    48   25   26 ar
    49   25   49 1
    50   26   50 1
    51   27   28 1
    52   28   51 1
    53   28   52 1
    54   28   53 1
@<TRIPOS>MOLECULE
ZINC46585582
   57    57     0     0     0
SMALL
USER_CHARGES

@<TRIPOS>ATOM
      1 C1          0.4437   -0.3316    3.1082 C.3       1 <0>        -0.1531
      2 C2          0.2654   -1.8024    2.7264 C.3       1 <0>         0.0578
      3 O1         -1.0999   -2.0423    2.3792 O.3       1 <0>        -0.3909
      4 C3         -1.3756   -3.3935    2.0046 C.3       1 <0>         0.0672
      5 C4         -2.8586   -3.5335    1.6556 C.3       1 <0>        -0.1350
      6 C5         -3.1538   -4.9802    1.2546 C.3       1 <0>         0.1243
      7 N1         -4.5739   -5.1143    0.9204 N.pl3     1 <0>        -0.6828
      8 C6         -5.0659   -6.3088    0.5363 C.2       1 <0>         0.5597
      9 S1         -4.0314   -7.6694    0.4389 S.2       1 <0>        -0.5812
     10 N2         -6.3723   -6.4321    0.2288 N.pl3     1 <0>        -0.4704
     11 N3         -7.2189   -5.3186    0.3085 N.am      1 <0>        -0.5451
     12 C7         -8.5253   -5.4420    0.0011 C.2       1 <0>         0.5245
     13 O2         -8.9499   -6.4924   -0.4316 O.2       1 <0>        -0.5090
     14 C8         -9.4585   -4.2747    0.1950 C.3       1 <0>         0.1467
     15 H1         -9.1306   -3.6858    1.0516 H         1 <0>         0.1172
     16 C9         -9.4477   -3.3993   -1.0598 C.3       1 <0>        -0.1025
     17 C10        -8.0607   -2.7782   -1.2365 C.3       1 <0>        -0.1604
     18 C11        -9.7823   -4.2562   -2.2824 C.3       1 <0>        -0.1534
     19 N4        -10.8166   -4.7695    0.4335 N.am      1 <0>        -0.7121
     20 C12       -11.7006   -4.0114    1.1118 C.2       1 <0>         0.5684
     21 O3        -11.3711   -2.9170    1.5257 O.2       1 <0>        -0.5295
     22 C13       -13.0712   -4.5108    1.3526 C.ar      1 <0>        -0.1355
     23 C14       -13.4510   -5.7696    0.8837 C.ar      1 <0>        -0.0907
     24 C15       -14.7311   -6.2298    1.1121 C.ar      1 <0>        -0.1213
     25 C16       -15.6381   -5.4464    1.8040 C.ar      1 <0>        -0.0905
     26 C17       -15.2681   -4.1981    2.2713 C.ar      1 <0>        -0.0926
     27 C18       -13.9890   -3.7283    2.0546 C.ar      1 <0>        -0.0578
     28 C19       -16.2626   -3.3517    3.0234 C.3       1 <0>        -0.1175
     29 H2          1.4850   -0.1486    3.3731 H         1 <0>         0.0729
     30 H3          0.1674    0.2992    2.2633 H         1 <0>         0.0631
     31 H4         -0.1945   -0.0974    3.9603 H         1 <0>         0.0631
     32 H5          0.9035   -2.0365    1.8744 H         1 <0>         0.0505
     33 H6          0.5416   -2.4332    3.5714 H         1 <0>         0.0505
     34 H7         -0.7715   -3.6606    1.1376 H         1 <0>         0.0567
     35 H8         -1.1334   -4.0572    2.8346 H         1 <0>         0.0566
     36 H9         -3.4627   -3.2664    2.5227 H         1 <0>         0.0800
     37 H10        -3.1008   -2.8697    0.8256 H         1 <0>         0.0801
     38 H11        -2.5497   -5.2473    0.3875 H         1 <0>         0.0953
     39 H12        -2.9116   -5.6440    2.0845 H         1 <0>         0.0952
     40 H13        -5.1600   -4.3433    0.9755 H         1 <0>         0.3920
     41 H14        -6.7264   -7.2918   -0.0476 H         1 <0>         0.4598
     42 H15        -6.8647   -4.4589    0.5850 H         1 <0>         0.4220
     43 H16       -10.1899   -2.6076   -0.9569 H         1 <0>         0.0996
     44 H17        -7.3110   -3.5684   -1.2754 H         1 <0>         0.0518
     45 H18        -8.0342   -2.2062   -2.1640 H         1 <0>         0.0748
     46 H19        -7.8487   -2.1174   -0.3959 H         1 <0>         0.0661
     47 H20       -10.7705   -4.6987   -2.1565 H         1 <0>         0.0615
     48 H21        -9.7747   -3.6325   -3.1763 H         1 <0>         0.0648
     49 H22        -9.0401   -5.0478   -2.3853 H         1 <0>         0.0579
     50 H23       -11.0795   -5.6429    0.1033 H         1 <0>         0.4123
     51 H24       -12.7443   -6.3816    0.3430 H         1 <0>         0.1261
     52 H25       -15.0263   -7.2035    0.7499 H         1 <0>         0.1317
     53 H26       -16.6394   -5.8111    1.9796 H         1 <0>         0.1293
     54 H27       -13.7001   -2.7552    2.4236 H         1 <0>         0.1372
     55 H28       -16.1934   -3.5703    4.0890 H         1 <0>         0.0743
     56 H29       -16.0441   -2.2974    2.8538 H         1 <0>         0.0702
     57 H30       -17.2697   -3.5752    2.6713 H         1 <0>         0.0701
@<TRIPOS>BOND
     1    1    2 1
     2    1   29 1
     3    1   30 1
     4    1   31 1
     5    2    3 1
     6    2   32 1
     7    2   33 1
     8    3    4 1
     9    4    5 1
    10    4   34 1
    11    4   35 1
    12    5    6 1
    13    5   36 1
    14    5   37 1
    15    6    7 1
    16    6   38 1
    17    6   39 1
    18    7    8 1
    19    7   40 1
    20    8    9 2
    21    8   10 1
    22   10   11 1
    23   10   41 1
    24   11   12 am
    25   11   42 1
    26   12   13 2
    27   12   14 1
    28   14   15 1
    29   14   16 1
    30   14   19 1
    31   16   17 1
    32   16   18 1
    33   16   43 1
    34   17   44 1
    35   17   45 1
    36   17   46 1
    37   18   47 1
    38   18   48 1
    39   18   49 1
    40   19   20 am
    41   19   50 1
    42   20   21 2
    43   20   22 1
    44   22   27 ar
    45   22   23 ar
    46   23   24 ar
    47   23   51 1
    48   24   25 ar
    49   24   52 1
    50   25   26 ar
    51   25   53 1
    52   26   27 ar
    53   26   28 1
    54   27   54 1
    55   28   55 1
    56   28   56 1
    57   28   57 1
@<TRIPOS>MOLECULE
ZINC64081789
   40    41     0     0     0
SMALL
USER_CHARGES

@<TRIPOS>ATOM
      1 C1         -0.0169    1.3915    0.0097 C.ar      1 <0>        -0.0697
      2 C2          1.1702    2.0945    0.0021 C.ar      1 <0>        -0.0183
      3 C3          2.3776    1.4190   -0.0135 C.ar      1 <0>        -0.6492
      4 C4          2.4034    0.0357   -0.0216 C.ar      1 <0>        -0.0243
      5 C5          1.2235   -0.6793   -0.0137 C.ar      1 <0>        -0.1079
      6 C6          0.0021   -0.0041    0.0020 C.ar      1 <0>        -0.0765
      7 C7         -1.2662   -0.7638    0.0105 C.2       1 <0>         0.5660
      8 O1         -2.3285   -0.1731    0.0243 O.2       1 <0>        -0.5005
      9 N1         -1.2445   -2.1114    0.0031 N.am      1 <0>        -0.5461
     10 N2         -2.4464   -2.8314    0.0112 N.pl3     1 <0>        -0.4603
     11 C8         -2.4247   -4.1789    0.0037 C.2       1 <0>         0.5619
     12 S1         -3.8933   -5.0587    0.0136 S.2       1 <0>        -0.5556
     13 N3         -1.2469   -4.8339   -0.0115 N.pl3     1 <0>        -0.6903
     14 C9         -1.2233   -6.2987   -0.0196 C.3       1 <0>         0.0834
     15 C10         0.2271   -6.7854   -0.0366 C.3       1 <0>         0.4475
     16 F1          0.8903   -6.3146    1.1017 F         1 <0>        -0.1777
     17 F2          0.2496   -8.1842   -0.0443 F         1 <0>        -0.1614
     18 F3          0.8676   -6.3023   -1.1827 F         1 <0>        -0.1772
     19 S2          3.8891    2.3245   -0.0236 S.o2      1 <0>         2.6954
     20 O2          4.8719    1.4679   -0.5889 O.2       1 <0>        -0.9440
     21 O3          3.5921    3.6045   -0.5647 O.2       1 <0>        -0.9470
     22 N4          4.3248    2.5676    1.5554 N.pl3     1 <0>        -1.0847
     23 C11         4.6706    1.4247    2.4042 C.3       1 <0>         0.0753
     24 C12         4.3074    1.5112    3.8879 C.3       1 <0>        -0.1876
     25 C13         5.7687    1.6280    3.4500 C.3       1 <0>        -0.1811
     26 H1         -0.9586    1.9199    0.0260 H         1 <0>         0.1536
     27 H2          1.1570    3.1744    0.0081 H         1 <0>         0.1550
     28 H3          3.3492   -0.4855   -0.0345 H         1 <0>         0.1526
     29 H4          1.2450   -1.7591   -0.0205 H         1 <0>         0.1328
     30 H5         -0.3968   -2.5828   -0.0079 H         1 <0>         0.4206
     31 H6         -3.2940   -2.3600    0.0221 H         1 <0>         0.4642
     32 H7         -0.4148   -4.3354   -0.0171 H         1 <0>         0.3966
     33 H8         -1.7224   -6.6750    0.8734 H         1 <0>         0.1401
     34 H9         -1.7401   -6.6655   -0.9065 H         1 <0>         0.1401
     35 H10         4.3511    3.4668    1.9183 H         1 <0>         0.4227
     36 H11         4.6057    0.4474    1.9260 H         1 <0>         0.1364
     37 H12         3.8112    2.4184    4.2326 H         1 <0>         0.1013
     38 H13         4.0033    0.5906    4.3861 H         1 <0>         0.1048
     39 H14         6.4261    0.7843    3.6601 H         1 <0>         0.1069
     40 H15         6.2339    2.6121    3.5065 H         1 <0>         0.1023
@<TRIPOS>BOND
     1    1    6 ar
     2    1    2 ar
     3    1   26 1
     4    2    3 ar
     5    2   27 1
     6    3    4 ar
     7    3   19 1
     8    4    5 ar
     9    4   28 1
    10    5    6 ar
    11    5   29 1
    12    6    7 1
    13    7    8 2
    14    7    9 am
    15    9   10 1
    16    9   30 1
    17   10   11 1
    18   10   31 1
    19   11   12 2
    20   11   13 1
    21   13   14 1
    22   13   32 1
    23   14   15 1
    24   14   33 1
    25   14   34 1
    26   15   16 1
    27   15   17 1
    28   15   18 1
    29   19   20 2
    30   19   21 2
    31   19   22 1
    32   22   23 1
    33   22   35 1
    34   23   25 1
    35   23   24 1
    36   23   36 1
    37   24   25 1
    38   24   37 1
    39   24   38 1
    40   25   39 1
    41   25   40 1
@<TRIPOS>MOLECULE
ZINC67211433
   59    61     0     0     0
SMALL
USER_CHARGES

@<TRIPOS>ATOM
      1 C1         -0.0187    1.5258    0.0104 C.3       1 <0>        -0.1227
      2 C2          1.4167    2.0553   -0.0004 C.3       1 <0>        -0.1170
      3 C3          2.1328    1.5619   -1.2592 C.3       1 <0>        -0.1261
      4 C4          2.1536    0.0321   -1.2676 C.3       1 <0>         0.1439
      5 C5          0.7182   -0.4975   -1.2568 C.3       1 <0>        -0.1290
      6 C6          0.0021   -0.0041    0.0020 C.3       1 <0>        -0.1183
      7 N1          2.8393   -0.4404   -2.4730 N.am      1 <0>        -0.7282
      8 C7          3.4244   -1.6545   -2.4833 C.2       1 <0>         0.5175
      9 O1          3.3832   -2.3559   -1.4947 O.2       1 <0>        -0.5315
     10 C8          4.1298   -2.1405   -3.7232 C.3       1 <0>        -0.1543
     11 C9          4.7017   -3.5368   -3.4703 C.3       1 <0>         0.1334
     12 N2          5.3874   -4.0093   -4.6756 N.am      1 <0>        -0.7368
     13 C10         5.9725   -5.2234   -4.6860 C.2       1 <0>         0.5109
     14 O2          5.9313   -5.9248   -3.6974 O.2       1 <0>        -0.5337
     15 C11         6.6779   -5.7094   -5.9258 C.3       1 <0>        -0.1400
     16 C12         7.2498   -7.1058   -5.6730 C.3       1 <0>        -0.1040
     17 C13         7.9660   -7.5992   -6.9318 C.3       1 <0>        -0.1203
     18 C14         8.5379   -8.9955   -6.6789 C.3       1 <0>        -0.1018
     19 C15         9.2541   -9.4890   -7.9377 C.3       1 <0>        -0.0421
     20 H1         10.0042   -8.7695   -8.2660 H         1 <0>         0.1085
     21 C16         9.8832  -10.8800   -7.7082 C.3       1 <0>         0.1236
     22 H2          9.4474  -11.3463   -6.8247 H         1 <0>         0.1116
     23 C17         9.7590  -11.8177   -8.9129 C.3       1 <0>         0.1217
     24 H3          9.2562  -12.7392   -8.6192 H         1 <0>         0.1106
     25 C18         9.0378  -11.1829  -10.1212 C.3       1 <0>        -0.0768
     26 S1          8.0483   -9.8512   -9.2871 S.3       1 <0>        -0.2704
     27 N3         11.1528  -12.1016   -9.2898 N.am      1 <0>        -0.7373
     28 C19        11.9725  -11.4474   -8.4556 C.2       1 <0>         0.6993
     29 O3         13.1844  -11.5025   -8.5377 O.2       1 <0>        -0.5821
     30 N4         11.3363  -10.7275   -7.5333 N.am      1 <0>        -0.7316
     31 H4         -0.5289    1.8773    0.9072 H         1 <0>         0.0649
     32 H5         -0.5459    1.8868   -0.8726 H         1 <0>         0.0627
     33 H6          1.4019    3.1452    0.0056 H         1 <0>         0.0681
     34 H7          1.9439    1.6943    0.8826 H         1 <0>         0.0657
     35 H8          1.6057    1.9230   -2.1423 H         1 <0>         0.0681
     36 H9          3.1554    1.9392   -1.2670 H         1 <0>         0.0686
     37 H10         2.6808   -0.3290   -0.3846 H         1 <0>         0.0890
     38 H11         0.1910   -0.1364   -2.1398 H         1 <0>         0.0633
     39 H12         0.7330   -1.5874   -1.2628 H         1 <0>         0.0672
     40 H13         0.5293   -0.3651    0.8851 H         1 <0>         0.0650
     41 H14        -1.0205   -0.3814    0.0098 H         1 <0>         0.0658
     42 H15         2.8723    0.1206   -3.2636 H         1 <0>         0.4003
     43 H16         3.4220   -2.1822   -4.5511 H         1 <0>         0.1012
     44 H17         4.9402   -1.4555   -3.9722 H         1 <0>         0.1011
     45 H18         5.4095   -3.4951   -2.6424 H         1 <0>         0.0767
     46 H19         3.8912   -4.2218   -3.2213 H         1 <0>         0.0767
     47 H20         5.4204   -3.4483   -5.4663 H         1 <0>         0.4001
     48 H21         5.9701   -5.7511   -6.7537 H         1 <0>         0.0945
     49 H22         7.4883   -5.0244   -6.1749 H         1 <0>         0.0938
     50 H23         7.9576   -7.0640   -4.8451 H         1 <0>         0.0714
     51 H24         6.4393   -7.7908   -5.4240 H         1 <0>         0.0726
     52 H25         7.2582   -7.6409   -7.7597 H         1 <0>         0.0701
     53 H26         8.7764   -6.9142   -7.1808 H         1 <0>         0.0657
     54 H27         9.2457   -8.9538   -5.8510 H         1 <0>         0.0815
     55 H28         7.7274   -9.6805   -6.4299 H         1 <0>         0.0822
     56 H29         9.7540  -10.7716  -10.8326 H         1 <0>         0.1029
     57 H30         8.3774  -11.9025  -10.6051 H         1 <0>         0.1185
     58 H31        11.4330  -12.6707  -10.0236 H         1 <0>         0.4328
     59 H32        11.7681  -10.1892   -6.8516 H         1 <0>         0.4325
@<TRIPOS>BOND
     1    1    6 1
     2    1    2 1
     3    1   31 1
     4    1   32 1
     5    2    3 1
     6    2   33 1
     7    2   34 1
     8    3    4 1
     9    3   35 1
    10    3   36 1
    11    4    5 1
    12    4    7 1
    13    4   37 1
    14    5    6 1
    15    5   38 1
    16    5   39 1
    17    6   40 1
    18    6   41 1
    19    7    8 am
    20    7   42 1
    21    8    9 2
    22    8   10 1
    23   10   11 1
    24   10   43 1
    25   10   44 1
    26   11   12 1
    27   11   45 1
    28   11   46 1
    29   12   13 am
    30   12   47 1
    31   13   14 2
    32   13   15 1
    33   15   16 1
    34   15   48 1
    35   15   49 1
    36   16   17 1
    37   16   50 1
    38   16   51 1
    39   17   18 1
    40   17   52 1
    41   17   53 1
    42   18   19 1
    43   18   54 1
    44   18   55 1
    45   19   20 1
    46   19   26 1
    47   19   21 1
    48   21   22 1
    49   21   30 1
    50   21   23 1
    51   23   24 1
    52   23   25 1
    53   23   27 1
    54   25   26 1
    55   25   56 1
    56   25   57 1
    57   27   28 am
    58   27   58 1
    59   28   29 2
    60   28   30 am
    61   30   59 1
@<TRIPOS>MOLECULE
ZINC03429669
   55    55     0     0     0
SMALL
USER_CHARGES

@<TRIPOS>ATOM
      1 C1         -0.5229    1.3121    0.8994 C.3       1 <0>        -0.1642
      2 C2         -0.4205   -0.2119    0.8105 C.3       1 <0>         0.1409
      3 H1         -0.0108   -0.4926   -0.1598 H         1 <0>         0.0889
      4 C3         -1.8119   -0.8269    0.9738 C.3       1 <0>        -0.1296
      5 C4         -1.7289   -2.3398    0.7611 C.3       1 <0>        -0.1151
      6 C5         -3.1203   -2.9548    0.9244 C.3       1 <0>        -0.0971
      7 C6         -3.0610   -4.4466    0.5900 C.3       1 <0>        -0.1487
      8 C7         -3.5914   -2.7743    2.3689 C.3       1 <0>        -0.1500
      9 N1          0.4592   -0.7050    1.8732 N.am      1 <0>        -0.7198
     10 C8          1.7934   -0.7336    1.6845 C.2       1 <0>         0.5126
     11 O1          2.2657   -0.3511    0.6350 O.2       1 <0>        -0.5262
     12 C9          2.6983   -1.2408    2.7777 C.3       1 <0>         0.1354
     13 H2          2.4430   -2.2747    3.0101 H         1 <0>         0.1080
     14 C10         2.5202   -0.3779    4.0285 C.3       1 <0>        -0.1708
     15 N2          4.0915   -1.1706    2.3302 N.pl3     1 <0>        -1.0981
     16 S1          5.1727   -2.3321    2.8036 S.o2      1 <0>         2.6976
     17 O2          6.4134   -2.0050    2.1930 O.2       1 <0>        -0.9522
     18 O3          5.0293   -2.4712    4.2105 O.2       1 <0>        -0.9510
     19 C11         4.6466   -3.8552    2.0907 C.ar      1 <0>        -0.6979
     20 C12         3.7702   -4.6731    2.7799 C.ar      1 <0>        -0.0045
     21 C13         3.3559   -5.8676    2.2238 C.ar      1 <0>        -0.1438
     22 C14         3.8201   -6.2466    0.9711 C.ar      1 <0>         0.2055
     23 C15         4.6999   -5.4227    0.2814 C.ar      1 <0>        -0.1669
     24 C16         5.1066   -4.2272    0.8408 C.ar      1 <0>         0.0079
     25 N3          3.4027   -7.4563    0.4052 N.am      1 <0>        -0.6788
     26 C17         2.1606   -7.9203    0.6470 C.2       1 <0>         0.5122
     27 O4          1.3727   -7.2453    1.2752 O.2       1 <0>        -0.5174
     28 C18         1.7508   -9.2778    0.1368 C.3       1 <0>        -0.1726
     29 H3          0.4684    1.7503    0.7830 H         1 <0>         0.0611
     30 H4         -1.1774    1.6790    0.1087 H         1 <0>         0.0665
     31 H5         -0.9326    1.5928    1.8697 H         1 <0>         0.0579
     32 H6         -2.1847   -0.6210    1.9772 H         1 <0>         0.0726
     33 H7         -2.4894   -0.3932    0.2383 H         1 <0>         0.0797
     34 H8         -1.3561   -2.5457   -0.2422 H         1 <0>         0.0618
     35 H9         -1.0514   -2.7735    1.4966 H         1 <0>         0.0633
     36 H10        -3.8183   -2.4587    0.2500 H         1 <0>         0.0688
     37 H11        -2.3630   -4.9427    1.2644 H         1 <0>         0.0554
     38 H12        -4.0522   -4.8848    0.7063 H         1 <0>         0.0539
     39 H13        -2.7254   -4.5752   -0.4391 H         1 <0>         0.0523
     40 H14        -4.5826   -3.2125    2.4852 H         1 <0>         0.0534
     41 H15        -2.8934   -3.2704    3.0433 H         1 <0>         0.0542
     42 H16        -3.6336   -1.7116    2.6072 H         1 <0>         0.0560
     43 H17         0.0814   -1.0109    2.7126 H         1 <0>         0.4014
     44 H18         3.1747   -0.7448    4.8192 H         1 <0>         0.0876
     45 H19         2.7755    0.6559    3.7960 H         1 <0>         0.0711
     46 H20         1.4836   -0.4302    4.3615 H         1 <0>         0.0742
     47 H21         4.3806   -0.4437    1.7566 H         1 <0>         0.4279
     48 H22         3.4095   -4.3778    3.7541 H         1 <0>         0.1442
     49 H23         2.6719   -6.5063    2.7629 H         1 <0>         0.1445
     50 H24         5.0630   -5.7148   -0.6929 H         1 <0>         0.1378
     51 H25         5.7876   -3.5840    0.3032 H         1 <0>         0.1462
     52 H26         4.0073   -7.9610   -0.1611 H         1 <0>         0.4169
     53 H27         1.9821  -10.0332    0.8878 H         1 <0>         0.1018
     54 H28         0.6796   -9.2819   -0.0649 H         1 <0>         0.1005
     55 H29         2.2943   -9.5001   -0.7816 H         1 <0>         0.0849
@<TRIPOS>BOND
     1    1    2 1
     2    1   29 1
     3    1   30 1
     4    1   31 1
     5    2    3 1
     6    2    4 1
     7    2    9 1
     8    4    5 1
     9    4   32 1
    10    4   33 1
    11    5    6 1
    12    5   34 1
    13    5   35 1
    14    6    7 1
    15    6    8 1
    16    6   36 1
    17    7   37 1
    18    7   38 1
    19    7   39 1
    20    8   40 1
    21    8   41 1
    22    8   42 1
    23    9   10 am
    24    9   43 1
    25   10   11 2
    26   10   12 1
    27   12   13 1
    28   12   14 1
    29   12   15 1
    30   14   44 1
    31   14   45 1
    32   14   46 1
    33   15   16 1
    34   15   47 1
    35   16   17 2
    36   16   18 2
    37   16   19 1
    38   19   24 ar
    39   19   20 ar
    40   20   21 ar
    41   20   48 1
    42   21   22 ar
    43   21   49 1
    44   22   23 ar
    45   22   25 1
    46   23   24 ar
    47   23   50 1
    48   24   51 1
    49   25   26 am
    50   25   52 1
    51   26   27 2
    52   26   28 1
    53   28   53 1
    54   28   54 1
    55   28   55 1
@<TRIPOS>MOLECULE
ZINC49743750
   53    53     0     0     0
SMALL
USER_CHARGES

@<TRIPOS>ATOM
      1 C1         -0.0187    1.5258    0.0104 C.3       1 <0>        -0.1522
      2 C2          0.0021   -0.0041    0.0020 C.3       1 <0>        -0.1223
      3 C3          0.7421   -0.5109    1.2415 C.3       1 <0>        -0.1346
      4 C4          0.7628   -2.0407    1.2331 C.3       1 <0>         0.1178
      5 N1          1.4714   -2.5260    2.4200 N.am      1 <0>        -0.5911
      6 C5          0.7331   -2.7871    3.6582 C.3       1 <0>         0.0853
      7 C6          0.2574   -4.2170    3.6675 C.2       1 <0>         0.4907
      8 O1          0.5102   -4.9463    2.7320 O.2       1 <0>        -0.5240
      9 N2         -0.4489   -4.6854    4.7154 N.am      1 <0>        -0.8543
     10 C7          2.8024   -2.7324    2.3728 C.2       1 <0>         0.5554
     11 O2          3.4157   -2.5156    1.3443 O.2       1 <0>        -0.5284
     12 C8          3.5106   -3.2174    3.5591 C.2       1 <0>        -0.1956
     13 C9          4.8420   -3.4238    3.5119 C.2       1 <0>        -0.0302
     14 C10         5.5539   -3.9115    4.7045 C.ar      1 <0>        -0.0151
     15 C11         4.8519   -4.1672    5.8865 C.ar      1 <0>        -0.1261
     16 C12         5.5259   -4.6238    6.9994 C.ar      1 <0>        -0.0179
     17 C13         6.8937   -4.8290    6.9486 C.ar      1 <0>        -0.6718
     18 C14         7.5956   -4.5782    5.7825 C.ar      1 <0>        -0.0210
     19 C15         6.9349   -4.1268    4.6595 C.ar      1 <0>        -0.1156
     20 S1          7.7460   -5.4121    8.3763 S.o2      1 <0>         2.6944
     21 O3          9.0997   -5.0034    8.2363 O.2       1 <0>        -0.9525
     22 O4          6.9531   -5.0502    9.4987 O.2       1 <0>        -0.9562
     23 N3          7.7416   -7.0667    8.3075 N.pl3     1 <0>        -1.1168
     24 C16         8.4588   -7.7569    7.2326 C.3       1 <0>         0.1119
     25 C17         8.6180   -9.2353    7.5931 C.3       1 <0>        -0.1308
     26 C18         9.3670   -9.9562    6.4705 C.3       1 <0>        -0.1540
     27 H1          1.0039    1.9031    0.0027 H         1 <0>         0.0545
     28 H2         -0.5459    1.8868   -0.8726 H         1 <0>         0.0557
     29 H3         -0.5289    1.8773    0.9072 H         1 <0>         0.0532
     30 H4         -1.0205   -0.3814    0.0098 H         1 <0>         0.0626
     31 H5          0.5123   -0.3556   -0.8948 H         1 <0>         0.0653
     32 H6          1.7647   -0.1336    1.2338 H         1 <0>         0.0685
     33 H7          0.2319   -0.1594    2.1383 H         1 <0>         0.0626
     34 H8         -0.2598   -2.4180    1.2409 H         1 <0>         0.0770
     35 H9          1.2730   -2.3923    0.3363 H         1 <0>         0.0889
     36 H10         1.3865   -2.6159    4.5137 H         1 <0>         0.1126
     37 H11        -0.1255   -2.1182    3.7171 H         1 <0>         0.1160
     38 H12        -0.6511   -4.1022    5.4636 H         1 <0>         0.4030
     39 H13        -0.7550   -5.6058    4.7214 H         1 <0>         0.4051
     40 H14         2.9664   -3.4099    4.4719 H         1 <0>         0.1290
     41 H15         5.3862   -3.2314    2.5991 H         1 <0>         0.1444
     42 H16         3.7846   -4.0072    5.9277 H         1 <0>         0.1347
     43 H17         4.9852   -4.8215    7.9131 H         1 <0>         0.1444
     44 H18         8.6629   -4.7404    5.7507 H         1 <0>         0.1456
     45 H19         7.4832   -3.9358    3.7488 H         1 <0>         0.1413
     46 H20         7.2642   -7.5788    8.9788 H         1 <0>         0.4201
     47 H21         7.8948   -7.6681    6.3040 H         1 <0>         0.0661
     48 H22         9.4429   -7.3062    7.1045 H         1 <0>         0.0823
     49 H23         9.1820   -9.3242    8.5216 H         1 <0>         0.0728
     50 H24         7.6339   -9.6861    7.7212 H         1 <0>         0.0702
     51 H25        10.3511   -9.5055    6.3424 H         1 <0>         0.0597
     52 H26         9.4804  -11.0094    6.7273 H         1 <0>         0.0615
     53 H27         8.8030   -9.8674    5.5420 H         1 <0>         0.0579
@<TRIPOS>BOND
     1    1    2 1
     2    1   27 1
     3    1   28 1
     4    1   29 1
     5    2    3 1
     6    2   30 1
     7    2   31 1
     8    3    4 1
     9    3   32 1
    10    3   33 1
    11    4    5 1
    12    4   34 1
    13    4   35 1
    14    5    6 1
    15    5   10 am
    16    6    7 1
    17    6   36 1
    18    6   37 1
    19    7    8 2
    20    7    9 am
    21    9   38 1
    22    9   39 1
    23   10   11 2
    24   10   12 1
    25   12   13 2
    26   12   40 1
    27   13   14 1
    28   13   41 1
    29   14   19 ar
    30   14   15 ar
    31   15   16 ar
    32   15   42 1
    33   16   17 ar
    34   16   43 1
    35   17   18 ar
    36   17   20 1
    37   18   19 ar
    38   18   44 1
    39   19   45 1
    40   20   21 2
    41   20   22 2
    42   20   23 1
    43   23   24 1
    44   23   46 1
    45   24   25 1
    46   24   47 1
    47   24   48 1
    48   25   26 1
    49   25   49 1
    50   25   50 1
    51   26   51 1
    52   26   52 1
    53   26   53 1
@<TRIPOS>MOLECULE
ZINC42705459
   56    56     0     0     0
SMALL
USER_CHARGES

@<TRIPOS>ATOM
      1 C1          1.0109   -0.8638   -4.3280 C.3       1 <0>        -0.1656
      2 C2          0.6404    0.1365   -3.2311 C.3       1 <0>        -0.0694
      3 C3          1.3463    1.4679   -3.4954 C.3       1 <0>        -0.1717
      4 C4         -0.8741    0.3538   -3.2295 C.3       1 <0>        -0.1420
      5 C5          1.0783   -0.4120   -1.8716 C.3       1 <0>        -0.1164
      6 C6          2.5695   -0.1370   -1.6671 C.3       1 <0>         0.1763
      7 C7          2.7720    1.3371   -1.3108 C.3       1 <0>        -0.2122
      8 C8          3.0985   -1.0138   -0.5304 C.3       1 <0>        -0.1628
      9 N1          3.2966   -0.4456   -2.9009 N.am      1 <0>        -0.7200
     10 C9          4.6096   -0.1575   -2.9993 C.2       1 <0>         0.5562
     11 O1          5.1905    0.3586   -2.0641 O.2       1 <0>        -0.5223
     12 C10         5.3423   -0.4684   -4.2424 C.ar      1 <0>        -0.0569
     13 C11         4.6747   -1.0561   -5.3198 C.ar      1 <0>        -0.2099
     14 C12         5.3630   -1.3459   -6.4830 C.ar      1 <0>         0.1503
     15 C13         6.7206   -1.0530   -6.5813 C.ar      1 <0>         0.0490
     16 C14         7.3884   -0.4677   -5.5089 C.ar      1 <0>         0.1498
     17 C15         6.7032   -0.1703   -4.3457 C.ar      1 <0>        -0.1741
     18 O2          8.7146   -0.1833   -5.6078 O.3       1 <0>        -0.2978
     19 C16         9.3362    0.4167   -4.4695 C.3       1 <0>         0.0209
     20 O3          7.3951   -1.3392   -7.7257 O.3       1 <0>        -0.2818
     21 C17         7.4350   -0.3208   -8.7273 C.3       1 <0>         0.0446
     22 C18         8.2203   -0.8146   -9.9149 C.2       1 <0>         0.5213
     23 O4          8.6988   -1.9290   -9.9046 O.2       1 <0>        -0.5163
     24 N2          8.3910   -0.0179  -10.9885 N.am      1 <0>        -0.8533
     25 O5          4.7136   -1.9180   -7.5321 O.3       1 <0>        -0.2967
     26 C19         3.3214   -2.1916   -7.3622 C.3       1 <0>         0.0197
     27 H1          1.9153   -0.5281   -4.8354 H         1 <0>         0.0571
     28 H2          1.1864   -1.8430   -3.8826 H         1 <0>         0.0633
     29 H3          0.1950   -0.9328   -5.0475 H         1 <0>         0.0701
     30 H4          1.2011    1.7558   -4.5366 H         1 <0>         0.0503
     31 H5          0.9288    2.2360   -2.8445 H         1 <0>         0.0637
     32 H6          2.4120    1.3604   -3.2934 H         1 <0>         0.0889
     33 H7         -1.3771   -0.5947   -3.0413 H         1 <0>         0.0567
     34 H8         -1.1381    1.0664   -2.4481 H         1 <0>         0.0572
     35 H9         -1.1862    0.7445   -4.1981 H         1 <0>         0.0571
     36 H10         0.5072    0.0760   -1.0819 H         1 <0>         0.0837
     37 H11         0.8992   -1.4866   -1.8386 H         1 <0>         0.0717
     38 H12         2.5002    1.4995   -0.2679 H         1 <0>         0.0593
     39 H13         3.8176    1.6065   -1.4600 H         1 <0>         0.0867
     40 H14         2.1426    1.9554   -1.9509 H         1 <0>         0.0934
     41 H15         3.0371   -2.0624   -0.8216 H         1 <0>         0.0546
     42 H16         4.1369   -0.7542   -0.3244 H         1 <0>         0.0730
     43 H17         2.4985   -0.8495    0.3647 H         1 <0>         0.0657
     44 H18         2.8332   -0.8573   -3.6470 H         1 <0>         0.4030
     45 H19         3.6218   -1.2841   -5.2437 H         1 <0>         0.1362
     46 H20         7.2206    0.2881   -3.5159 H         1 <0>         0.1523
     47 H21        10.3912    0.5906   -4.6811 H         1 <0>         0.1069
     48 H22         8.8488    1.3660   -4.2476 H         1 <0>         0.0609
     49 H23         9.2427   -0.2490   -3.6115 H         1 <0>         0.0622
     50 H24         6.4192   -0.0778   -9.0390 H         1 <0>         0.0853
     51 H25         7.9132    0.5703   -8.3206 H         1 <0>         0.0858
     52 H26         8.0083    0.8734  -10.9967 H         1 <0>         0.4020
     53 H27         8.8965   -0.3357  -11.7529 H         1 <0>         0.4080
     54 H28         3.1852   -2.8762   -6.5250 H         1 <0>         0.0597
     55 H29         2.7902   -1.2614   -7.1610 H         1 <0>         0.0582
     56 H30         2.9269   -2.6461   -8.2710 H         1 <0>         0.1081
@<TRIPOS>BOND
     1    1    2 1
     2    1   27 1
     3    1   28 1
     4    1   29 1
     5    2    3 1
     6    2    4 1
     7    2    5 1
     8    3   30 1
     9    3   31 1
    10    3   32 1
    11    4   33 1
    12    4   34 1
    13    4   35 1
    14    5    6 1
    15    5   36 1
    16    5   37 1
    17    6    7 1
    18    6    8 1
    19    6    9 1
    20    7   38 1
    21    7   39 1
    22    7   40 1
    23    8   41 1
    24    8   42 1
    25    8   43 1
    26    9   10 am
    27    9   44 1
    28   10   11 2
    29   10   12 1
    30   12   17 ar
    31   12   13 ar
    32   13   14 ar
    33   13   45 1
    34   14   15 ar
    35   14   25 1
    36   15   16 ar
    37   15   20 1
    38   16   17 ar
    39   16   18 1
    40   17   46 1
    41   18   19 1
    42   19   47 1
    43   19   48 1
    44   19   49 1
    45   20   21 1
    46   21   22 1
    47   21   50 1
    48   21   51 1
    49   22   23 2
    50   22   24 am
    51   24   52 1
    52   24   53 1
    53   25   26 1
    54   26   54 1
    55   26   55 1
    56   26   56 1
@<TRIPOS>MOLECULE
ZINC64898713
   42    42     0     0     0
SMALL
USER_CHARGES

@<TRIPOS>ATOM
      1 C1         -0.0173    1.4248    0.0099 C.3       1 <0>         0.0295
      2 O1          0.0021   -0.0041    0.0020 O.3       1 <0>        -0.3908
      3 C2          0.6734   -0.5824    1.1231 C.3       1 <0>         0.0456
      4 C3          0.6327   -2.1077    1.0107 C.3       1 <0>         0.1381
      5 N1          1.4013   -2.5316   -0.1622 N.am      1 <0>        -0.7386
      6 C4          1.5054   -3.8414   -0.4623 C.2       1 <0>         0.7134
      7 O2          0.9614   -4.6712    0.2404 O.2       1 <0>        -0.5685
      8 N2          2.2125   -4.2314   -1.5414 N.am      1 <0>        -0.5327
      9 N3          2.8394   -3.2752   -2.3511 N.am      1 <0>        -0.5317
     10 C5          3.5465   -3.6652   -3.4302 C.2       1 <0>         0.5163
     11 O3          3.6402   -4.8438   -3.7002 O.2       1 <0>        -0.5234
     12 C6          4.2207   -2.6367   -4.3012 C.3       1 <0>        -0.1270
     13 C7          4.9502   -3.3390   -5.4482 C.3       1 <0>        -0.1060
     14 C8          5.6348   -2.2948   -6.3324 C.3       1 <0>         0.0580
     15 O4          6.3161   -2.9507   -7.4037 O.3       1 <0>        -0.2982
     16 C9          6.9808   -2.1607   -8.2877 C.ar      1 <0>         0.1576
     17 C10         6.9821   -0.7832   -8.1241 C.ar      1 <0>        -0.2056
     18 C11         7.6584    0.0176   -9.0239 C.ar      1 <0>        -0.0642
     19 C12         8.3340   -0.5524  -10.0873 C.ar      1 <0>        -0.1530
     20 C13         8.3347   -1.9249  -10.2532 C.ar      1 <0>        -0.0524
     21 C14         7.6643   -2.7312   -9.3525 C.ar      1 <0>        -0.1280
     22 Br1         7.6723   -4.6091   -9.5749 Br        1 <0>        -0.0342
     23 H1          1.0053    1.8021    0.0021 H         1 <0>         0.0429
     24 H2         -0.5445    1.7859   -0.8732 H         1 <0>         0.0887
     25 H3         -0.5275    1.7763    0.9067 H         1 <0>         0.0447
     26 H4          1.7103   -0.2468    1.1385 H         1 <0>         0.0583
     27 H5          0.1775   -0.2725    2.0430 H         1 <0>         0.0727
     28 H6          1.0656   -2.5499    1.9080 H         1 <0>         0.0879
     29 H7         -0.4012   -2.4369    0.9060 H         1 <0>         0.0810
     30 H8          1.8353   -1.8696   -0.7228 H         1 <0>         0.3937
     31 H9          2.2875   -5.1741   -1.7574 H         1 <0>         0.4445
     32 H10         2.7644   -2.3326   -2.1351 H         1 <0>         0.4196
     33 H11         3.4714   -1.9581   -4.7086 H         1 <0>         0.1055
     34 H12         4.9381   -2.0711   -3.7066 H         1 <0>         0.1049
     35 H13         5.6996   -4.0176   -5.0407 H         1 <0>         0.0874
     36 H14         4.2328   -3.9046   -6.0428 H         1 <0>         0.0876
     37 H15         4.8854   -1.6162   -6.7399 H         1 <0>         0.0673
     38 H16         6.3521   -1.7292   -5.7378 H         1 <0>         0.0671
     39 H17         6.4545   -0.3371   -7.2940 H         1 <0>         0.1361
     40 H18         7.6593    1.0901   -8.8968 H         1 <0>         0.1323
     41 H19         8.8618    0.0757  -10.7897 H         1 <0>         0.1340
     42 H20         8.8627   -2.3676  -11.0847 H         1 <0>         0.1394
@<TRIPOS>BOND
     1    1    2 1
     2    1   23 1
     3    1   24 1
     4    1   25 1
     5    2    3 1
     6    3    4 1
     7    3   26 1
     8    3   27 1
     9    4    5 1
    10    4   28 1
    11    4   29 1
    12    5    6 am
    13    5   30 1
    14    6    7 2
    15    6    8 am
    16    8    9 1
    17    8   31 1
    18    9   10 am
    19    9   32 1
    20   10   11 2
    21   10   12 1
    22   12   13 1
    23   12   33 1
    24   12   34 1
    25   13   14 1
    26   13   35 1
    27   13   36 1
    28   14   15 1
    29   14   37 1
    30   14   38 1
    31   15   16 1
    32   16   21 ar
    33   16   17 ar
    34   17   18 ar
    35   17   39 1
    36   18   19 ar
    37   18   40 1
    38   19   20 ar
    39   19   41 1
    40   20   21 ar
    41   20   42 1
    42   21   22 1
@<TRIPOS>MOLECULE
ZINC67421074
   50    51     0     0     0
SMALL
USER_CHARGES

@<TRIPOS>ATOM
      1 C1          2.8490    0.8959   -1.1274 C.3       1 <0>        -0.1507
      2 C2          2.2683   -0.5009   -0.8979 C.3       1 <0>        -0.1241
      3 C3          2.4253   -0.8828    0.5754 C.3       1 <0>         0.0595
      4 O1          1.8829   -2.1873    0.7897 O.3       1 <0>        -0.3163
      5 C4          1.9431   -2.6805    2.0553 C.ar      1 <0>         0.1155
      6 C5          2.5064   -1.9234    3.0697 C.ar      1 <0>        -0.1931
      7 C6          2.5664   -2.4261    4.3561 C.ar      1 <0>        -0.0857
      8 C7          2.0653   -3.6845    4.6352 C.ar      1 <0>        -0.1388
      9 C8          1.5019   -4.4464    3.6297 C.ar      1 <0>        -0.0806
     10 C9          1.4331   -3.9467    2.3367 C.ar      1 <0>         0.1035
     11 N1          0.8583   -4.7137    1.3179 N.am      1 <0>        -0.6305
     12 C10         1.0009   -6.0539    1.3212 C.2       1 <0>         0.5083
     13 O2          1.5578   -6.6027    2.2498 O.2       1 <0>        -0.5011
     14 C11         0.4738   -6.8637    0.1826 C.2       1 <0>         0.5153
     15 O3         -0.0829   -6.3150   -0.7457 O.2       1 <0>        -0.5099
     16 N2          0.6165   -8.2039    0.1859 N.am      1 <0>        -0.6965
     17 C12         0.0994   -8.9983   -0.9311 C.3       1 <0>         0.1062
     18 C13         0.3896  -10.4796   -0.6809 C.3       1 <0>         0.1073
     19 N3         -0.1275  -11.2740   -1.7979 N.am      1 <0>        -0.7248
     20 C14         0.0151  -12.6142   -1.7946 C.2       1 <0>         0.5651
     21 O4          0.5728  -13.1638   -0.8646 O.2       1 <0>        -0.5274
     22 C15        -0.5063  -13.4153   -2.9209 C.ar      1 <0>        -0.1504
     23 C16        -1.1423  -12.7859   -3.9931 C.ar      1 <0>        -0.0560
     24 C17        -1.6270  -13.5381   -5.0415 C.ar      1 <0>        -0.1608
     25 C18        -1.4844  -14.9173   -5.0326 C.ar      1 <0>         0.1289
     26 C19        -0.8538  -15.5473   -3.9705 C.ar      1 <0>        -0.1605
     27 C20        -0.3599  -14.8041   -2.9200 C.ar      1 <0>        -0.0275
     28 F1         -1.9621  -15.6500   -6.0622 F         1 <0>        -0.1315
     29 H1          3.9063    0.8978   -0.8622 H         1 <0>         0.0580
     30 H2          2.7371    1.1680   -2.1769 H         1 <0>         0.0661
     31 H3          2.3174    1.6169   -0.5064 H         1 <0>         0.0583
     32 H4          1.2110   -0.5028   -1.1630 H         1 <0>         0.0746
     33 H5          2.7999   -1.2219   -1.5188 H         1 <0>         0.0740
     34 H6          3.4826   -0.8808    0.8405 H         1 <0>         0.0640
     35 H7          1.8937   -0.1617    1.1963 H         1 <0>         0.0645
     36 H8          2.8990   -0.9404    2.8553 H         1 <0>         0.1338
     37 H9          3.0063   -1.8345    5.1453 H         1 <0>         0.1292
     38 H10         2.1149   -4.0729    5.6418 H         1 <0>         0.1311
     39 H11         1.1113   -5.4288    3.8507 H         1 <0>         0.1474
     40 H12         0.3571   -4.2811    0.6090 H         1 <0>         0.4259
     41 H13         1.0615   -8.6424    0.9279 H         1 <0>         0.4180
     42 H14        -0.9769   -8.8483   -1.0161 H         1 <0>         0.0842
     43 H15         0.5842   -8.6842   -1.8554 H         1 <0>         0.0839
     44 H16         1.4659  -10.6296   -0.5958 H         1 <0>         0.0819
     45 H17        -0.0952  -10.7937    0.2435 H         1 <0>         0.0821
     46 H18        -0.5725  -10.8354   -2.5399 H         1 <0>         0.4035
     47 H19        -1.2545  -11.7118   -4.0007 H         1 <0>         0.1370
     48 H20        -2.1190  -13.0524   -5.8712 H         1 <0>         0.1447
     49 H21        -0.7456  -16.6219   -3.9684 H         1 <0>         0.1458
     50 H22         0.1355  -15.2953   -2.0955 H         1 <0>         0.1486
@<TRIPOS>BOND
     1    1    2 1
     2    1   29 1
     3    1   30 1
     4    1   31 1
     5    2    3 1
     6    2   32 1
     7    2   33 1
     8    3    4 1
     9    3   34 1
    10    3   35 1
    11    4    5 1
    12    5   10 ar
    13    5    6 ar
    14    6    7 ar
    15    6   36 1
    16    7    8 ar
    17    7   37 1
    18    8    9 ar
    19    8   38 1
    20    9   10 ar
    21    9   39 1
    22   10   11 1
    23   11   12 am
    24   11   40 1
    25   12   13 2
    26   12   14 1
    27   14   15 2
    28   14   16 am
    29   16   17 1
    30   16   41 1
    31   17   18 1
    32   17   42 1
    33   17   43 1
    34   18   19 1
    35   18   44 1
    36   18   45 1
    37   19   20 am
    38   19   46 1
    39   20   21 2
    40   20   22 1
    41   22   27 ar
    42   22   23 ar
    43   23   24 ar
    44   23   47 1
    45   24   25 ar
    46   24   48 1
    47   25   26 ar
    48   25   28 1
    49   26   27 ar
    50   26   49 1
    51   27   50 1
@<TRIPOS>MOLECULE
ZINC31050873
   39    40     0     0     0
SMALL
USER_CHARGES
1-[2-[(5-cyano-2-pyridyl)amino]ethyl]-3-cyclopentyl-urea
@<TRIPOS>ATOM
      1 C1          1.1821    2.1559    0.0024 C.ar      1 <0>         0.0174
      2 C2          1.1159    3.5236    0.0098 C.ar      1 <0>        -0.2433
      3 C3         -0.1296    4.1477    0.0246 C.ar      1 <0>         0.4343
      4 N1         -1.2485    3.4363    0.0315 N.ar      1 <0>        -0.5427
      5 C4         -1.2301    2.1196    0.0193 C.ar      1 <0>         0.2131
      6 C5         -0.0173    1.4278    0.0099 C.ar      1 <0>        -0.1527
      7 C6          0.0021   -0.0041    0.0020 C.1       1 <0>         0.2625
      8 N2          0.0175   -1.1399   -0.0042 N.1       1 <0>        -0.4231
      9 N3         -0.2001    5.5318    0.0318 N.pl3     1 <0>        -0.7225
     10 C7          1.0297    6.3279    0.0238 C.3       1 <0>         0.1168
     11 C8          0.6740    7.8159    0.0342 C.3       1 <0>         0.1323
     12 N4          1.9038    8.6121    0.0262 N.am      1 <0>        -0.7571
     13 C9          1.8353    9.9581    0.0331 C.2       1 <0>         0.7077
     14 O1          0.7528   10.5116    0.0460 O.2       1 <0>        -0.5933
     15 N5          2.9667   10.6905    0.0258 N.am      1 <0>        -0.7537
     16 C10         2.8922   12.1535    0.0334 C.3       1 <0>         0.1569
     17 C11         2.7968   12.6853   -1.4116 C.3       1 <0>        -0.1376
     18 C12         3.6392   13.9850   -1.3945 C.3       1 <0>        -0.1261
     19 C13         4.8217   13.6136   -0.4656 C.3       1 <0>        -0.1194
     20 C14         4.1796   12.7438    0.6349 C.3       1 <0>        -0.1256
     21 H1          2.1357    1.6492   -0.0095 H         1 <0>         0.1420
     22 H2          2.0208    4.1130    0.0047 H         1 <0>         0.1395
     23 H3         -2.1601    1.5706    0.0207 H         1 <0>         0.1672
     24 H4         -1.1794    6.0326    0.0435 H         1 <0>         0.4362
     25 H5          1.6278    6.0876    0.9152 H         1 <0>         0.0736
     26 H6          1.6107    6.0961   -0.8810 H         1 <0>         0.0736
     27 H7          0.0759    8.0561   -0.8572 H         1 <0>         0.0732
     28 H8          0.0930    8.0477    0.9390 H         1 <0>         0.0732
     29 H9          2.8831    8.1113    0.0146 H         1 <0>         0.4164
     30 H10         3.9460   10.1897    0.0141 H         1 <0>         0.4105
     31 H11         2.0012   12.3933    0.6322 H         1 <0>         0.0902
     32 H12         3.2068   11.9368   -2.1056 H         1 <0>         0.0686
     33 H13         1.7434   12.8794   -1.6621 H         1 <0>         0.0690
     34 H14         3.9623   14.2260   -2.4180 H         1 <0>         0.0682
     35 H15         3.0307   14.8112   -0.9980 H         1 <0>         0.0696
     36 H16         5.5792   13.0600   -1.0399 H         1 <0>         0.0678
     37 H17         5.2696   14.5316   -0.0574 H         1 <0>         0.0692
     38 H18         3.9274   13.3505    1.5171 H         1 <0>         0.0757
     39 H19         4.8535   11.9269    0.9322 H         1 <0>         0.0723
@<TRIPOS>BOND
     1    1    6 ar
     2    1    2 ar
     3    1   21 1
     4    2    3 ar
     5    2   22 1
     6    3    4 ar
     7    3    9 1
     8    4    5 ar
     9    5    6 ar
    10    5   23 1
    11    6    7 1
    12    7    8 3
    13    9   10 1
    14    9   24 1
    15   10   11 1
    16   10   25 1
    17   10   26 1
    18   11   12 1
    19   11   27 1
    20   11   28 1
    21   12   13 am
    22   12   29 1
    23   13   14 2
    24   13   15 am
    25   15   16 1
    26   15   30 1
    27   16   20 1
    28   16   17 1
    29   16   31 1
    30   17   18 1
    31   17   32 1
    32   17   33 1
    33   18   19 1
    34   18   34 1
    35   18   35 1
    36   19   20 1
    37   19   36 1
    38   19   37 1
    39   20   38 1
    40   20   39 1
@<TRIPOS>MOLECULE
ZINC41306725
   29    29     0     0     0
SMALL
USER_CHARGES

@<TRIPOS>ATOM
      1 C1         -0.0187    1.5258    0.0104 C.3       1 <0>        -0.1554
      2 C2          0.0021   -0.0041    0.0020 C.3       1 <0>        -0.0960
      3 C3          0.7182   -0.4975   -1.2568 C.3       1 <0>        -0.1480
      4 C4          0.7421   -0.5109    1.2415 C.3       1 <0>        -0.1215
      5 C5         -0.0416   -0.1236    2.4973 C.3       1 <0>         0.1088
      6 N1          0.6670   -0.6089    3.6841 N.pl3     1 <0>        -1.0975
      7 S1          0.2658   -0.0294    5.1826 S.o2      1 <0>         2.7370
      8 O1          1.0999   -0.7030    6.1152 O.2       1 <0>        -0.9381
      9 O2          0.2324    1.3871    5.0747 O.2       1 <0>        -0.9322
     10 C6         -1.3847   -0.5480    5.5170 C.2       1 <0>        -0.5589
     11 N2         -2.2123   -1.2638    4.7832 N.2       1 <0>        -0.1149
     12 N3         -3.3768   -1.5530    5.1717 N.2       1 <0>        -0.3596
     13 C7         -3.8411   -1.1523    6.3478 C.2       1 <0>         0.3579
     14 S2         -2.4126   -0.2591    6.9543 S.3       1 <0>         0.0815
     15 N4         -5.0766   -1.3678    6.9401 N.pl3     1 <0>        -0.7655
     16 H1          1.0039    1.9031    0.0027 H         1 <0>         0.0572
     17 H2         -0.5459    1.8868   -0.8726 H         1 <0>         0.0560
     18 H3         -0.5289    1.8773    0.9072 H         1 <0>         0.0583
     19 H4         -1.0205   -0.3814    0.0098 H         1 <0>         0.0744
     20 H5          1.7408   -0.1202   -1.2645 H         1 <0>         0.0555
     21 H6          0.7330   -1.5874   -1.2628 H         1 <0>         0.0552
     22 H7          0.1910   -0.1364   -2.1398 H         1 <0>         0.0561
     23 H8          0.8346   -1.5958    1.1912 H         1 <0>         0.0733
     24 H9          1.7350   -0.0630    1.2804 H         1 <0>         0.0737
     25 H10        -0.1341    0.9613    2.5476 H         1 <0>         0.0835
     26 H11        -1.0345   -0.5716    2.4584 H         1 <0>         0.0761
     27 H12         1.3711   -1.2697    3.5922 H         1 <0>         0.4240
     28 H13        -5.7535   -1.8846    6.4758 H         1 <0>         0.4290
     29 H14        -5.2638   -1.0016    7.8186 H         1 <0>         0.4299
@<TRIPOS>BOND
     1    1    2 1
     2    1   16 1
     3    1   17 1
     4    1   18 1
     5    2    3 1
     6    2    4 1
     7    2   19 1
     8    3   20 1
     9    3   21 1
    10    3   22 1
    11    4    5 1
    12    4   23 1
    13    4   24 1
    14    5    6 1
    15    5   25 1
    16    5   26 1
    17    6    7 1
    18    6   27 1
    19    7    8 2
    20    7    9 2
    21    7   10 1
    22   10   14 1
    23   10   11 2
    24   11   12 1
    25   12   13 2
    26   13   14 1
    27   13   15 1
    28   15   28 1
    29   15   29 1
@<TRIPOS>MOLECULE
ZINC49182714
   36    37     0     0     0
SMALL
USER_CHARGES

@<TRIPOS>ATOM
      1 C1         -0.0163    1.3513    0.0095 C.2       1 <0>        -0.1588
      2 C2          1.1833    2.0380    0.0017 C.2       1 <0>        -0.1367
      3 C3          2.3426    1.3358   -0.0131 C.2       1 <0>        -0.1410
      4 S1          1.7535   -0.3495   -0.0166 S.3       1 <0>         0.0517
      5 C4          0.0021   -0.0041    0.0020 C.2       1 <0>        -0.1676
      6 C5          3.7608    1.8454   -0.0244 C.3       1 <0>        -0.0434
      7 C6          4.2473    2.0081    1.3926 C.2       1 <0>         0.5147
      8 O1          3.5146    1.7369    2.3203 O.2       1 <0>        -0.5143
      9 N1          5.4967    2.4550    1.6290 N.am      1 <0>        -0.5313
     10 N2          5.9490    2.6062    2.9463 N.am      1 <0>        -0.5316
     11 C7          7.1984    3.0531    3.1827 C.2       1 <0>         0.7134
     12 O2          7.5909    3.1843    4.3260 O.2       1 <0>        -0.5700
     13 N3          8.0126    3.3545    2.1519 N.am      1 <0>        -0.7373
     14 C8          9.3706    3.8402    2.4088 C.3       1 <0>         0.1267
     15 C9         10.0776    4.1056    1.0782 C.3       1 <0>         0.0668
     16 H1         10.0394    3.2124    0.4547 H         1 <0>         0.0892
     17 C10        11.5473    4.5019    1.3359 C.3       1 <0>        -0.1481
     18 C11        11.7784    5.6162    0.2790 C.3       1 <0>        -0.1564
     19 C12        10.3789    6.2802    0.2408 C.3       1 <0>         0.0488
     20 O3          9.4451    5.1981    0.4013 O.3       1 <0>        -0.3775
     21 H2         -0.9542    1.8866    0.0258 H         1 <0>         0.1350
     22 H3          1.1967    3.1179    0.0070 H         1 <0>         0.1322
     23 H4         -0.8275   -0.6955    0.0065 H         1 <0>         0.1867
     24 H5          4.3986    1.1333   -0.5480 H         1 <0>         0.1168
     25 H6          3.7967    2.8084   -0.5337 H         1 <0>         0.1242
     26 H7          6.0827    2.6719    0.8871 H         1 <0>         0.4205
     27 H8          5.3630    2.3893    3.6883 H         1 <0>         0.4441
     28 H9          7.6994    3.2497    1.2398 H         1 <0>         0.3945
     29 H10         9.3230    4.7639    2.9856 H         1 <0>         0.0755
     30 H11         9.9249    3.0888    2.9712 H         1 <0>         0.0817
     31 H12        11.6722    4.8931    2.3456 H         1 <0>         0.0841
     32 H13        12.2133    3.6570    1.1609 H         1 <0>         0.0886
     33 H14        12.5392    6.3220    0.6122 H         1 <0>         0.0869
     34 H15        12.0378    5.1904   -0.6903 H         1 <0>         0.0807
     35 H16        10.2763    6.9937    1.0584 H         1 <0>         0.0630
     36 H17        10.2214    6.7759   -0.7171 H         1 <0>         0.0882
@<TRIPOS>BOND
     1    1    5 2
     2    1    2 1
     3    1   21 1
     4    2    3 2
     5    2   22 1
     6    3    4 1
     7    3    6 1
     8    4    5 1
     9    5   23 1
    10    6    7 1
    11    6   24 1
    12    6   25 1
    13    7    8 2
    14    7    9 am
    15    9   10 1
    16    9   26 1
    17   10   11 am
    18   10   27 1
    19   11   12 2
    20   11   13 am
    21   13   14 1
    22   13   28 1
    23   14   15 1
    24   14   29 1
    25   14   30 1
    26   15   16 1
    27   15   20 1
    28   15   17 1
    29   17   18 1
    30   17   31 1
    31   17   32 1
    32   18   19 1
    33   18   33 1
    34   18   34 1
    35   19   20 1
    36   19   35 1
    37   19   36 1
@<TRIPOS>MOLECULE
ZINC56370466
   33    33     0     0     0
SMALL
USER_CHARGES

@<TRIPOS>ATOM
      1 C1         -0.0178    1.4608    0.0101 C.3       1 <0>         0.1026
      2 N1          0.0021   -0.0041    0.0020 N.am      1 <0>        -0.7478
      3 C2          0.5851   -0.6645   -1.0180 C.2       1 <0>         0.7111
      4 O1          1.0945   -0.0446   -1.9315 O.2       1 <0>        -0.5670
      5 N2          0.6034   -2.0121   -1.0254 N.am      1 <0>        -0.5334
      6 N3          0.0163   -2.7264    0.0272 N.am      1 <0>        -0.5312
      7 C3          0.0346   -4.0741    0.0198 C.2       1 <0>         0.5171
      8 O2          0.5592   -4.6684   -0.8981 O.2       1 <0>        -0.5296
      9 C4         -0.5969   -4.8424    1.1520 C.3       1 <0>        -0.1229
     10 C5         -0.4390   -6.3433    0.9003 C.3       1 <0>        -0.1527
     11 C6         -1.0704   -7.1117    2.0325 C.2       1 <0>         0.4027
     12 O3         -1.5950   -6.5174    2.9503 O.2       1 <0>        -0.4505
     13 C7         -1.0505   -8.5817    2.0244 C.ar      1 <0>        -0.1867
     14 C8         -0.4410   -9.2704    0.9697 C.ar      1 <0>        -0.0408
     15 C9         -0.4258  -10.6478    0.9682 C.ar      1 <0>        -0.1669
     16 C10        -1.0134  -11.3521    2.0089 C.ar      1 <0>         0.1346
     17 C11        -1.6193  -10.6755    3.0574 C.ar      1 <0>        -0.1675
     18 C12        -1.6360   -9.2982    3.0743 C.ar      1 <0>        -0.0297
     19 F1         -0.9959  -12.7030    2.0010 F         1 <0>        -0.1313
     20 H1          1.0048    1.8381    0.0023 H         1 <0>         0.0634
     21 H2         -0.5450    1.8219   -0.8730 H         1 <0>         0.0634
     22 H3         -0.5280    1.8123    0.9069 H         1 <0>         0.0805
     23 H4         -0.4044   -0.4986    0.7308 H         1 <0>         0.3930
     24 H5          1.0230   -2.4874   -1.7595 H         1 <0>         0.4442
     25 H6         -0.4033   -2.2511    0.7613 H         1 <0>         0.4208
     26 H7         -0.1066   -4.5776    2.0888 H         1 <0>         0.1091
     27 H8         -1.6563   -4.5938    1.2135 H         1 <0>         0.1091
     28 H9         -0.9293   -6.6082   -0.0365 H         1 <0>         0.1129
     29 H10         0.6205   -6.5920    0.8388 H         1 <0>         0.1128
     30 H11         0.0162   -8.7233    0.1586 H         1 <0>         0.1461
     31 H12         0.0443  -11.1806    0.1549 H         1 <0>         0.1448
     32 H13        -2.0750  -11.2298    3.8646 H         1 <0>         0.1440
     33 H14        -2.1041   -8.7726    3.8934 H         1 <0>         0.1454
@<TRIPOS>BOND
     1    1    2 1
     2    1   20 1
     3    1   21 1
     4    1   22 1
     5    2    3 am
     6    2   23 1
     7    3    4 2
     8    3    5 am
     9    5    6 1
    10    5   24 1
    11    6    7 am
    12    6   25 1
    13    7    8 2
    14    7    9 1
    15    9   10 1
    16    9   26 1
    17    9   27 1
    18   10   11 1
    19   10   28 1
    20   10   29 1
    21   11   12 2
    22   11   13 1
    23   13   18 ar
    24   13   14 ar
    25   14   15 ar
    26   14   30 1
    27   15   16 ar
    28   15   31 1
    29   16   17 ar
    30   16   19 1
    31   17   18 ar
    32   17   32 1
    33   18   33 1
@<TRIPOS>MOLECULE
ZINC63091964
   35    35     0     0     0
SMALL
USER_CHARGES

@<TRIPOS>ATOM
      1 C1         -0.0184    1.5028    0.0103 C.3       1 <0>        -0.0815
      2 C2          0.0021   -0.0041    0.0020 C.2       1 <0>        -0.1007
      3 C3         -1.0392   -0.8719    0.0017 C.2       1 <0>        -0.2014
      4 C4         -0.7802   -2.2296   -0.0075 C.2       1 <0>        -0.0029
      5 C5          0.5074   -2.6532   -0.0160 C.2       1 <0>        -0.7710
      6 S1          1.4039   -1.1093   -0.0179 S.3       1 <0>         0.1498
      7 S2          1.1337   -4.3001   -0.0287 S.o2      1 <0>         2.7300
      8 O1          2.4446   -4.2402    0.5164 O.2       1 <0>        -0.9550
      9 O2          0.1166   -5.1256    0.5220 O.2       1 <0>        -0.9155
     10 N1          1.3003   -4.7483   -1.6141 N.pl3     1 <0>        -0.9838
     11 C6          2.5599   -4.4956   -2.3183 C.3       1 <0>         0.0885
     12 C7          0.1882   -5.3976   -2.3126 C.3       1 <0>         0.1577
     13 H1         -0.6575   -5.5004   -1.6326 H         1 <0>         0.1119
     14 C8         -0.2250   -4.5469   -3.5153 C.3       1 <0>        -0.1683
     15 C9          0.6269   -6.7821   -2.7938 C.3       1 <0>        -0.0707
     16 C10         0.9164   -7.6593   -1.6031 C.2       1 <0>         0.3533
     17 N2          0.7763   -7.1917   -0.4070 N.2       1 <0>        -0.4017
     18 O3          1.0483   -8.0160    0.7118 O.3       1 <0>        -0.4259
     19 N3          1.3304   -8.9595   -1.7900 N.pl3     1 <0>        -0.8751
     20 H2          1.0042    1.8801    0.0026 H         1 <0>         0.0786
     21 H3         -0.5455    1.8639   -0.8728 H         1 <0>         0.0899
     22 H4         -0.5286    1.8543    0.9071 H         1 <0>         0.0898
     23 H5         -2.0560   -0.5079    0.0090 H         1 <0>         0.1432
     24 H6         -1.5916   -2.9424   -0.0076 H         1 <0>         0.1462
     25 H7          3.2227   -5.3523   -2.1962 H         1 <0>         0.0592
     26 H8          2.3588   -4.3401   -3.3782 H         1 <0>         0.0766
     27 H9          3.0355   -3.6064   -1.9044 H         1 <0>         0.0705
     28 H10        -1.0524   -5.0300   -4.0349 H         1 <0>         0.0723
     29 H11        -0.5375   -3.5606   -3.1725 H         1 <0>         0.0641
     30 H12         0.6207   -4.4442   -4.1953 H         1 <0>         0.0655
     31 H13        -0.1693   -7.2290   -3.3892 H         1 <0>         0.1051
     32 H14         1.5262   -6.6872   -3.4023 H         1 <0>         0.0986
     33 H15         0.9152   -7.5788    1.5640 H         1 <0>         0.4016
     34 H16         1.4356   -9.3106   -2.6881 H         1 <0>         0.3942
     35 H17         1.5168   -9.5241   -1.0236 H         1 <0>         0.4067
@<TRIPOS>BOND
     1    1    2 1
     2    1   20 1
     3    1   21 1
     4    1   22 1
     5    2    6 1
     6    2    3 2
     7    3    4 1
     8    3   23 1
     9    4    5 2
    10    4   24 1
    11    5    6 1
    12    5    7 1
    13    7    8 2
    14    7    9 2
    15    7   10 1
    16   10   11 1
    17   10   12 1
    18   11   25 1
    19   11   26 1
    20   11   27 1
    21   12   13 1
    22   12   14 1
    23   12   15 1
    24   14   28 1
    25   14   29 1
    26   14   30 1
    27   15   16 1
    28   15   31 1
    29   15   32 1
    30   16   17 2
    31   16   19 1
    32   17   18 1
    33   18   33 1
    34   19   34 1
    35   19   35 1
@<TRIPOS>MOLECULE
ZINC20549328
   32    33     0     0     0
SMALL
USER_CHARGES
N-(4-amino-2,6-dichloro-phenyl)-2-(2-furylmethoxy)acetamide
@<TRIPOS>ATOM
      1 C1         10.9162    2.0523   -1.6955 C.2       1 <0>        -0.2187
      2 C2         10.1226    1.2514   -0.8425 C.2       1 <0>        -0.1799
      3 C3          9.3543    0.4817   -1.6340 C.2       1 <0>        -0.0222
      4 O1          9.6430    0.7681   -2.9140 O.3       1 <0>        -0.1712
      5 C4         10.5853    1.7241   -2.9573 C.2       1 <0>        -0.0277
      6 C5          8.3454   -0.5344   -1.1642 C.3       1 <0>         0.1415
      7 O2          7.0712    0.0944   -1.0124 O.3       1 <0>        -0.3563
      8 C6          6.0375   -0.7865   -0.5680 C.3       1 <0>         0.0449
      9 C7          4.7450   -0.0217   -0.4433 C.2       1 <0>         0.5233
     10 O3          4.7123    1.1614   -0.7088 O.2       1 <0>        -0.4990
     11 N1          3.6254   -0.6524   -0.0367 N.am      1 <0>        -0.6895
     12 C8          2.4013    0.0320   -0.0214 C.ar      1 <0>         0.0888
     13 C9          1.5934    0.0360   -1.1515 C.ar      1 <0>         0.0350
     14 C10         0.3877    0.7107   -1.1363 C.ar      1 <0>        -0.1919
     15 C11        -0.0166    1.3848    0.0086 C.ar      1 <0>         0.2602
     16 C12         0.7908    1.3809    1.1385 C.ar      1 <0>        -0.1920
     17 C13         1.9967    0.7064    1.1238 C.ar      1 <0>         0.0368
     18 Cl1         3.0057    0.7011    2.5364 Cl        1 <0>        -0.0475
     19 N2         -1.2346    2.0726    0.0218 N.pl3     1 <0>        -0.8879
     20 Cl2         2.0985   -0.8071   -2.5825 Cl        1 <0>        -0.0482
     21 H1         11.6474    2.7870   -1.3923 H         1 <0>         0.1512
     22 H2         10.1312    1.2570    0.2375 H         1 <0>         0.1502
     23 H3         11.0093    2.1528   -3.8534 H         1 <0>         0.2056
     24 H4          8.2687   -1.3443   -1.9046 H         1 <0>         0.0724
     25 H5          8.6665   -0.9503   -0.1978 H         1 <0>         0.0874
     26 H6          5.9124   -1.6017   -1.2959 H         1 <0>         0.0872
     27 H7          6.3103   -1.2076    0.4109 H         1 <0>         0.0867
     28 H8          3.6718   -1.7039    0.2831 H         1 <0>         0.4317
     29 H9         -0.2403    0.7141   -2.0151 H         1 <0>         0.1399
     30 H10         0.4762    1.9052    2.0288 H         1 <0>         0.1398
     31 H11        -1.5549    2.6066    0.9286 H         1 <0>         0.4247
     32 H12        -1.8721    2.0795   -0.8746 H         1 <0>         0.4247
@<TRIPOS>BOND
     1    1    5 2
     2    1    2 1
     3    1   21 1
     4    2    3 2
     5    2   22 1
     6    3    4 1
     7    3    6 1
     8    4    5 1
     9    5   23 1
    10    6    7 1
    11    6   24 1
    12    6   25 1
    13    7    8 1
    14    8    9 1
    15    8   26 1
    16    8   27 1
    17    9   10 2
    18    9   11 am
    19   11   12 1
    20   11   28 1
    21   12   17 ar
    22   12   13 ar
    23   13   14 ar
    24   13   20 1
    25   14   15 ar
    26   14   29 1
    27   15   16 ar
    28   15   19 1
    29   16   17 ar
    30   16   30 1
    31   17   18 1
    32   19   31 1
    33   19   32 1
@<TRIPOS>MOLECULE
ZINC36719797
   43    44     0     0     0
SMALL
USER_CHARGES

@<TRIPOS>ATOM
      1 C1         -0.0187    1.5258    0.0104 C.3       1 <0>        -0.1601
      2 C2          0.0021   -0.0041    0.0020 C.3       1 <0>         0.1754
      3 H1         -1.0205   -0.3814    0.0098 H         1 <0>         0.1035
      4 C3          0.7074   -0.4901   -1.2379 C.ar      1 <0>        -0.0317
      5 C4          2.0889   -0.5108   -1.2839 C.ar      1 <0>        -0.1374
      6 C5          2.7359   -0.9566   -2.4212 C.ar      1 <0>        -0.0123
      7 C6          2.0015   -1.3821   -3.5123 C.ar      1 <0>        -0.6759
      8 C7          0.6201   -1.3622   -3.4659 C.ar      1 <0>        -0.0116
      9 C8         -0.0269   -0.9205   -2.3270 C.ar      1 <0>        -0.1285
     10 S1          2.8263   -1.9492   -4.9624 S.o2      1 <0>         2.7013
     11 O1          1.9163   -1.7781   -6.0404 O.2       1 <0>        -0.9611
     12 O2          4.1173   -1.3557   -4.9538 O.2       1 <0>        -0.9616
     13 N1          3.0541   -3.5804   -4.7898 N.pl3     1 <0>        -1.2496
     14 N2          0.7106   -0.4894    1.1889 N.am      1 <0>        -0.7318
     15 C9          0.0512   -0.6335    2.3554 C.2       1 <0>         0.5150
     16 O3         -1.1288   -0.3614    2.4226 O.2       1 <0>        -0.5297
     17 C10         0.7801   -1.1327    3.5763 C.3       1 <0>        -0.1351
     18 C11        -0.1910   -1.2038    4.7565 C.3       1 <0>        -0.0772
     19 C12        -0.6195    0.2179    5.1747 C.3       1 <0>        -0.1138
     20 C13        -0.7152    0.1470    6.7190 C.3       1 <0>        -0.1284
     21 C14         0.4787   -0.7657    7.0939 C.3       1 <0>        -0.1257
     22 C15         0.5073   -1.8292    5.9767 C.3       1 <0>        -0.1226
     23 H2          1.0039    1.9031    0.0027 H         1 <0>         0.0614
     24 H3         -0.5459    1.8868   -0.8726 H         1 <0>         0.0705
     25 H4         -0.5289    1.8773    0.9072 H         1 <0>         0.0709
     26 H5          2.6626   -0.1783   -0.4315 H         1 <0>         0.1335
     27 H6          3.8152   -0.9721   -2.4575 H         1 <0>         0.1464
     28 H7          0.0463   -1.6944   -4.3185 H         1 <0>         0.1472
     29 H8         -1.1062   -0.9085   -2.2894 H         1 <0>         0.1388
     30 H9          2.7450   -4.0312   -3.9885 H         1 <0>         0.4168
     31 H10         3.4967   -4.0851   -5.4901 H         1 <0>         0.4222
     32 H11         1.6544   -0.7070    1.1351 H         1 <0>         0.4002
     33 H12         1.1839   -2.1254    3.3778 H         1 <0>         0.0936
     34 H13         1.5952   -0.4503    3.8172 H         1 <0>         0.0949
     35 H14        -1.0664   -1.7935    4.4844 H         1 <0>         0.0800
     36 H15         0.1318    0.9473    4.8721 H         1 <0>         0.0594
     37 H16        -1.5892    0.4664    4.7434 H         1 <0>         0.0730
     38 H17        -0.5976    1.1372    7.1592 H         1 <0>         0.0647
     39 H18        -1.6582   -0.3044    7.0273 H         1 <0>         0.0665
     40 H19         1.4075   -0.1952    7.1012 H         1 <0>         0.0642
     41 H20         0.3105   -1.2351    8.0632 H         1 <0>         0.0644
     42 H21        -0.0297   -2.7220    6.2973 H         1 <0>         0.0656
     43 H22         1.5380   -2.0821    5.7282 H         1 <0>         0.0647
@<TRIPOS>BOND
     1    1    2 1
     2    1   23 1
     3    1   24 1
     4    1   25 1
     5    2    3 1
     6    2    4 1
     7    2   14 1
     8    4    9 ar
     9    4    5 ar
    10    5    6 ar
    11    5   26 1
    12    6    7 ar
    13    6   27 1
    14    7    8 ar
    15    7   10 1
    16    8    9 ar
    17    8   28 1
    18    9   29 1
    19   10   11 2
    20   10   12 2
    21   10   13 1
    22   13   30 1
    23   13   31 1
    24   14   15 am
    25   14   32 1
    26   15   16 2
    27   15   17 1
    28   17   18 1
    29   17   33 1
    30   17   34 1
    31   18   22 1
    32   18   19 1
    33   18   35 1
    34   19   20 1
    35   19   36 1
    36   19   37 1
    37   20   21 1
    38   20   38 1
    39   20   39 1
    40   21   22 1
    41   21   40 1
    42   21   41 1
    43   22   42 1
    44   22   43 1
@<TRIPOS>MOLECULE
ZINC42483769
   41    41     0     0     0
SMALL
USER_CHARGES

@<TRIPOS>ATOM
      1 C1         -0.2056    1.6480   -0.0506 C.3       1 <0>        -0.1609
      2 C2          0.0773    0.1446   -0.0261 C.3       1 <0>        -0.1342
      3 C3         -1.2458   -0.6228    0.0109 C.3       1 <0>         0.1457
      4 C4         -0.9660   -2.1253   -0.0609 C.3       1 <0>        -0.1347
      5 C5         -2.2900   -2.8869   -0.1496 C.3       1 <0>        -0.1593
      6 N1         -1.9531   -0.3168    1.2568 N.pl3     1 <0>        -0.9806
      7 C6         -1.3887   -0.7369    2.5418 C.3       1 <0>         0.1239
      8 C7         -0.4307    0.3403    3.0546 C.3       1 <0>         0.0420
      9 O1         -1.1632    1.5348    3.3350 O.3       1 <0>        -0.5505
     10 S1         -3.3907    0.5040    1.2126 S.o2      1 <0>         2.6872
     11 O2         -3.5417    1.1271    2.4808 O.2       1 <0>        -0.9247
     12 O3         -3.4015    1.2390   -0.0034 O.2       1 <0>        -0.9533
     13 C8         -4.6731   -0.6978    1.0861 C.ar      1 <0>        -0.6429
     14 C9         -5.1040   -1.1188   -0.1585 C.ar      1 <0>        -0.0507
     15 C10        -6.1101   -2.0617   -0.2631 C.ar      1 <0>        -0.1234
     16 C11        -6.6885   -2.5866    0.8780 C.ar      1 <0>         0.0707
     17 C12        -6.2566   -2.1646    2.1309 C.ar      1 <0>         0.1723
     18 C13        -5.2423   -1.2219    2.2305 C.ar      1 <0>        -0.0762
     19 N2         -6.8387   -2.6928    3.2875 N.pl3     1 <0>        -0.8711
     20 F1         -7.6717   -3.5075    0.7760 F         1 <0>        -0.1346
     21 H1          0.7370    2.1947   -0.0770 H         1 <0>         0.0540
     22 H2         -0.7926    1.8929   -0.9359 H         1 <0>         0.0631
     23 H3         -0.7629    1.9275    0.8435 H         1 <0>         0.0582
     24 H4          0.6346   -0.1349   -0.9202 H         1 <0>         0.0740
     25 H5          0.6643   -0.1002    0.8591 H         1 <0>         0.0712
     26 H6         -1.8614   -0.3268   -0.8385 H         1 <0>         0.1000
     27 H7         -0.3631   -2.3409   -0.9430 H         1 <0>         0.0766
     28 H8         -0.4264   -2.4376    0.8332 H         1 <0>         0.0702
     29 H9         -2.8930   -2.6714    0.7325 H         1 <0>         0.0566
     30 H10        -2.8296   -2.5746   -1.0437 H         1 <0>         0.0561
     31 H11        -2.0908   -3.9573   -0.2007 H         1 <0>         0.0567
     32 H12        -2.1935   -0.8804    3.2627 H         1 <0>         0.0861
     33 H13        -0.8463   -1.6734    2.4116 H         1 <0>         0.0974
     34 H14         0.0558   -0.0098    3.9650 H         1 <0>         0.0518
     35 H15         0.3239    0.5465    2.2956 H         1 <0>         0.0606
     36 H16        -0.6181    2.2621    3.6649 H         1 <0>         0.3751
     37 H17        -4.6540   -0.7100   -1.0511 H         1 <0>         0.1449
     38 H18        -6.4446   -2.3882   -1.2367 H         1 <0>         0.1451
     39 H19        -4.9016   -0.8953    3.2019 H         1 <0>         0.1464
     40 H20        -7.5445   -3.3544    3.2166 H         1 <0>         0.4049
     41 H21        -6.5366   -2.3977    4.1607 H         1 <0>         0.4065
@<TRIPOS>BOND
     1    1    2 1
     2    1   21 1
     3    1   22 1
     4    1   23 1
     5    2    3 1
     6    2   24 1
     7    2   25 1
     8    3    4 1
     9    3    6 1
    10    3   26 1
    11    4    5 1
    12    4   27 1
    13    4   28 1
    14    5   29 1
    15    5   30 1
    16    5   31 1
    17    6    7 1
    18    6   10 1
    19    7    8 1
    20    7   32 1
    21    7   33 1
    22    8    9 1
    23    8   34 1
    24    8   35 1
    25    9   36 1
    26   10   11 2
    27   10   12 2
    28   10   13 1
    29   13   18 ar
    30   13   14 ar
    31   14   15 ar
    32   14   37 1
    33   15   16 ar
    34   15   38 1
    35   16   17 ar
    36   16   20 1
    37   17   18 ar
    38   17   19 1
    39   18   39 1
    40   19   40 1
    41   19   41 1
@<TRIPOS>MOLECULE
ZINC51094564
   34    34     0     0     0
SMALL
USER_CHARGES

@<TRIPOS>ATOM
      1 C1          0.2667    1.7066   -1.4404 C.3       1 <0>        -0.1536
      2 C2          0.0309    0.2313   -1.1108 C.3       1 <0>        -0.1492
      3 C3          1.1098   -0.6202   -1.7830 C.3       1 <0>         0.0851
      4 N1          0.9689   -2.0142   -1.3549 N.am      1 <0>        -0.6047
      5 C4         -0.0352   -2.8757   -1.9840 C.3       1 <0>         0.0730
      6 C5          0.5404   -3.4761   -3.2682 C.3       1 <0>         0.4348
      7 F1          1.6769   -4.2320   -2.9609 F         1 <0>        -0.1750
      8 F2         -0.4185   -4.2989   -3.8689 F         1 <0>        -0.1773
      9 F3          0.8892   -2.4466   -4.1488 F         1 <0>        -0.1826
     10 C6          1.7631   -2.5040   -0.3824 C.2       1 <0>         0.5697
     11 O1          1.5987   -3.6377    0.0228 O.2       1 <0>        -0.4988
     12 C7          2.8366   -1.6601    0.1927 C.ar      1 <0>        -0.0254
     13 C8          2.5928   -0.3312    0.5430 C.ar      1 <0>        -0.2196
     14 C9          3.6290    0.4245    1.0800 C.ar      1 <0>         0.4305
     15 N2          4.8296   -0.1037    1.2582 N.ar      1 <0>        -0.5079
     16 C10         5.0955   -1.3562    0.9384 C.ar      1 <0>         0.2298
     17 C11         4.1198   -2.1760    0.4044 C.ar      1 <0>        -0.1664
     18 Cl1         6.6926   -1.9848    1.1988 Cl        1 <0>        -0.0146
     19 N3          3.4017    1.7498    1.4334 N.pl3     1 <0>        -0.5662
     20 N4          4.4144    2.4991    1.9616 N.3       1 <0>        -0.5963
     21 H1          1.2481    2.0083   -1.0744 H         1 <0>         0.0543
     22 H2          0.2219    1.8494   -2.5201 H         1 <0>         0.0628
     23 H3         -0.5019    2.3132   -0.9615 H         1 <0>         0.0647
     24 H4          0.0757    0.0885   -0.0311 H         1 <0>         0.0724
     25 H5         -0.9504   -0.0705   -1.4768 H         1 <0>         0.0750
     26 H6          0.9984   -0.5596   -2.8656 H         1 <0>         0.0923
     27 H7          2.0947   -0.2503   -1.4978 H         1 <0>         0.0994
     28 H8         -0.3069   -3.6779   -1.2978 H         1 <0>         0.1370
     29 H9         -0.9206   -2.2868   -2.2233 H         1 <0>         0.1280
     30 H10         1.6147    0.1034    0.3989 H         1 <0>         0.1560
     31 H11         4.3460   -3.2010    0.1498 H         1 <0>         0.1532
     32 H12         2.5241    2.1423    1.3049 H         1 <0>         0.4142
     33 H13         5.2137    2.5120    1.3460 H         1 <0>         0.3470
     34 H14         4.1015    3.4360    2.1676 H         1 <0>         0.3581
@<TRIPOS>BOND
     1    1    2 1
     2    1   21 1
     3    1   22 1
     4    1   23 1
     5    2    3 1
     6    2   24 1
     7    2   25 1
     8    3    4 1
     9    3   26 1
    10    3   27 1
    11    4    5 1
    12    4   10 am
    13    5    6 1
    14    5   28 1
    15    5   29 1
    16    6    7 1
    17    6    8 1
    18    6    9 1
    19   10   11 2
    20   10   12 1
    21   12   17 ar
    22   12   13 ar
    23   13   14 ar
    24   13   30 1
    25   14   15 ar
    26   14   19 1
    27   15   16 ar
    28   16   17 ar
    29   16   18 1
    30   17   31 1
    31   19   20 1
    32   19   32 1
    33   20   33 1
    34   20   34 1
@<TRIPOS>MOLECULE
ZINC66120036
   44    45     0     0     0
SMALL
USER_CHARGES

@<TRIPOS>ATOM
      1 C1         -0.0204    1.3812    0.0105 C.ar      1 <0>        -0.1452
      2 C2          1.1671    2.0884    0.0019 C.ar      1 <0>        -0.0519
      3 C3          2.3737    1.4146   -0.0143 C.ar      1 <0>        -0.1450
      4 C4          2.3941    0.0301   -0.0220 C.ar      1 <0>         0.1327
      5 C5          1.2055   -0.6792   -0.0134 C.ar      1 <0>        -0.1843
      6 C6         -0.0024   -0.0034    0.0028 C.ar      1 <0>         0.1325
      7 F1         -1.1633   -0.6944    0.0116 F         1 <0>        -0.1269
      8 F2          3.5738   -0.6283   -0.0383 F         1 <0>        -0.1268
      9 C7          1.1461    3.5952    0.0098 C.3       1 <0>         0.1793
     10 N1          1.1535    4.0765    1.3934 N.am      1 <0>        -0.7455
     11 C8          1.1376    5.4002    1.6466 C.2       1 <0>         0.7100
     12 O1          1.2102    6.1954    0.7297 O.2       1 <0>        -0.5866
     13 N2          1.0412    5.8424    2.9161 N.am      1 <0>        -0.6272
     14 C9          1.0698    4.8985    4.0417 C.3       1 <0>         0.1102
     15 C10        -0.1638    5.1384    4.9178 C.3       1 <0>        -0.1353
     16 C11        -0.2113    6.6106    5.3330 C.3       1 <0>        -0.1153
     17 C12        -0.3258    7.4906    4.0861 C.3       1 <0>        -0.1026
     18 H1         -1.2240    7.2200    3.5311 H         1 <0>         0.0768
     19 C13         0.9116    7.2779    3.2009 C.3       1 <0>         0.1311
     20 C14        -0.4071    8.9602    4.5040 C.3       1 <0>        -0.0971
     21 C15        -0.6465    9.8294    3.2679 C.3       1 <0>        -0.1467
     22 C16        -0.7265   11.2769    3.6794 C.2       1 <0>         0.5152
     23 O2         -0.6041   11.5831    4.8466 O.2       1 <0>        -0.5444
     24 N3         -0.9342   12.2311    2.7506 N.am      1 <0>        -0.8586
     25 H2         -0.9627    1.9087    0.0277 H         1 <0>         0.1465
     26 H3          3.3010    1.9682   -0.0214 H         1 <0>         0.1469
     27 H4          1.2205   -1.7591   -0.0197 H         1 <0>         0.1518
     28 H5          2.0256    3.9735   -0.5112 H         1 <0>         0.0851
     29 H6          0.2459    3.9487   -0.4931 H         1 <0>         0.0835
     30 H7          1.1698    3.4425    2.1274 H         1 <0>         0.3978
     31 H8          1.0556    3.8768    3.6623 H         1 <0>         0.0751
     32 H9          1.9729    5.0593    4.6305 H         1 <0>         0.0726
     33 H10        -1.0636    4.8899    4.3549 H         1 <0>         0.0680
     34 H11        -0.1058    4.5112    5.8073 H         1 <0>         0.0778
     35 H12        -1.0747    6.7787    5.9767 H         1 <0>         0.0695
     36 H13         0.7000    6.8648    5.8744 H         1 <0>         0.0676
     37 H14         1.8021    7.6288    3.7225 H         1 <0>         0.0679
     38 H15         0.7929    7.8266    2.2666 H         1 <0>         0.0951
     39 H16        -1.2297    9.0932    5.2066 H         1 <0>         0.0760
     40 H17         0.5283    9.2549    4.9797 H         1 <0>         0.0741
     41 H18         0.1761    9.6964    2.5653 H         1 <0>         0.0974
     42 H19        -1.5819    9.5347    2.7921 H         1 <0>         0.0954
     43 H20        -1.0321   11.9862    1.8171 H         1 <0>         0.4024
     44 H21        -0.9857   13.1628    3.0155 H         1 <0>         0.4013
@<TRIPOS>BOND
     1    1    6 ar
     2    1    2 ar
     3    1   25 1
     4    2    3 ar
     5    2    9 1
     6    3    4 ar
     7    3   26 1
     8    4    5 ar
     9    4    8 1
    10    5    6 ar
    11    5   27 1
    12    6    7 1
    13    9   10 1
    14    9   28 1
    15    9   29 1
    16   10   11 am
    17   10   30 1
    18   11   12 2
    19   11   13 am
    20   13   19 1
    21   13   14 1
    22   14   15 1
    23   14   31 1
    24   14   32 1
    25   15   16 1
    26   15   33 1
    27   15   34 1
    28   16   17 1
    29   16   35 1
    30   16   36 1
    31   17   18 1
    32   17   19 1
    33   17   20 1
    34   19   37 1
    35   19   38 1
    36   20   21 1
    37   20   39 1
    38   20   40 1
    39   21   22 1
    40   21   41 1
    41   21   42 1
    42   22   23 2
    43   22   24 am
    44   24   43 1
    45   24   44 1
@<TRIPOS>MOLECULE
ZINC10943771
   54    56     0     0     0
SMALL
USER_CHARGES
2-(4-acetylamino-3-chloro-phenyl)amino-N-(4-morpholinophenyl)-propanamide
@<TRIPOS>ATOM
      1 C1         -3.8841    2.3040    1.1411 C.3       1 <0>        -0.1688
      2 C2         -3.2861    1.7014   -0.1318 C.3       1 <0>         0.1361
      3 H1         -2.9781    2.5029   -0.8032 H         1 <0>         0.1099
      4 C3         -4.3196    0.8432   -0.8149 C.2       1 <0>         0.5119
      5 O1         -4.1056   -0.3372   -0.9937 O.2       1 <0>        -0.5133
      6 N1         -5.4817    1.3874   -1.2271 N.am      1 <0>        -0.6668
      7 C4         -6.4813    0.5726   -1.7758 C.ar      1 <0>         0.1153
      8 C5         -6.1343   -0.5142   -2.5672 C.ar      1 <0>        -0.0892
      9 C6         -7.1187   -1.3203   -3.1032 C.ar      1 <0>        -0.1508
     10 C7         -8.4565   -1.0376   -2.8597 C.ar      1 <0>         0.0985
     11 C8         -8.8036    0.0529   -2.0727 C.ar      1 <0>        -0.1197
     12 C9         -7.8187    0.8557   -1.5326 C.ar      1 <0>        -0.1143
     13 N2         -9.4543   -1.8509   -3.4074 N.pl3     1 <0>        -0.4871
     14 C10       -10.3335   -2.3855   -2.3574 C.3       1 <0>         0.0194
     15 C11       -11.4433   -3.2188   -3.0040 C.3       1 <0>         0.0614
     16 O2        -10.8551   -4.2537   -3.7967 O.3       1 <0>        -0.3826
     17 C12        -9.9932   -3.7684   -4.8295 C.3       1 <0>         0.0620
     18 C13        -8.8687   -2.9408   -4.2015 C.3       1 <0>         0.0115
     19 N3         -2.1230    0.8814    0.2159 N.pl3     1 <0>        -0.7276
     20 C14        -0.8660    1.4774    0.3636 C.ar      1 <0>         0.2181
     21 C15        -0.7217    2.8474    0.1855 C.ar      1 <0>        -0.1763
     22 C16         0.5197    3.4352    0.3256 C.ar      1 <0>        -0.0683
     23 C17         1.6235    2.6579    0.6494 C.ar      1 <0>         0.0967
     24 C18         1.4790    1.2883    0.8330 C.ar      1 <0>        -0.0152
     25 C19         0.2365    0.7002    0.6932 C.ar      1 <0>        -0.1650
     26 Cl1         2.8590    0.3162    1.2384 Cl        1 <0>        -0.0637
     27 N4          2.8840    3.2551    0.7915 N.am      1 <0>        -0.6660
     28 C20         2.9797    4.5454    1.1689 C.2       1 <0>         0.5123
     29 O3          1.9762    5.2120    1.3102 O.2       1 <0>        -0.5290
     30 C21         4.3334    5.1599    1.4154 C.3       1 <0>        -0.1708
     31 H2         -4.7496    2.9141    0.8824 H         1 <0>         0.0714
     32 H3         -4.1922    1.5025    1.8125 H         1 <0>         0.0679
     33 H4         -3.1366    2.9247    1.6351 H         1 <0>         0.0787
     34 H5         -5.6262    2.3430   -1.1439 H         1 <0>         0.4126
     35 H6         -5.0941   -0.7315   -2.7599 H         1 <0>         0.1385
     36 H7         -6.8486   -2.1684   -3.7148 H         1 <0>         0.1305
     37 H8         -9.8438    0.2726   -1.8829 H         1 <0>         0.1303
     38 H9         -8.0886    1.7036   -0.9206 H         1 <0>         0.1296
     39 H10        -9.7532   -3.0140   -1.6819 H         1 <0>         0.0541
     40 H11       -10.7761   -1.5610   -1.7986 H         1 <0>         0.0935
     41 H12       -12.0565   -2.5786   -3.6382 H         1 <0>         0.0628
     42 H13       -12.0647   -3.6640   -2.2270 H         1 <0>         0.1037
     43 H14       -10.5643   -3.1443   -5.5168 H         1 <0>         0.0626
     44 H15        -9.5652   -4.6108   -5.3730 H         1 <0>         0.1038
     45 H16        -8.2421   -2.5215   -4.9886 H         1 <0>         0.0945
     46 H17        -8.2643   -3.5776   -3.5555 H         1 <0>         0.0571
     47 H18        -2.2244   -0.0748    0.3436 H         1 <0>         0.4114
     48 H19        -1.5800    3.4524   -0.0671 H         1 <0>         0.1310
     49 H20         0.6322    4.4998    0.1829 H         1 <0>         0.1594
     50 H21         0.1237   -0.3644    0.8358 H         1 <0>         0.1368
     51 H22         3.6872    2.7396    0.6183 H         1 <0>         0.4117
     52 H23         5.1085    4.4140    1.2396 H         1 <0>         0.0786
     53 H24         4.4790    6.0017    0.7385 H         1 <0>         0.1000
     54 H25         4.3919    5.5086    2.4465 H         1 <0>         0.1008
@<TRIPOS>BOND
     1    1    2 1
     2    1   31 1
     3    1   32 1
     4    1   33 1
     5    2    3 1
     6    2    4 1
     7    2   19 1
     8    4    5 2
     9    4    6 am
    10    6    7 1
    11    6   34 1
    12    7   12 ar
    13    7    8 ar
    14    8    9 ar
    15    8   35 1
    16    9   10 ar
    17    9   36 1
    18   10   11 ar
    19   10   13 1
    20   11   12 ar
    21   11   37 1
    22   12   38 1
    23   13   18 1
    24   13   14 1
    25   14   15 1
    26   14   39 1
    27   14   40 1
    28   15   16 1
    29   15   41 1
    30   15   42 1
    31   16   17 1
    32   17   18 1
    33   17   43 1
    34   17   44 1
    35   18   45 1
    36   18   46 1
    37   19   20 1
    38   19   47 1
    39   20   25 ar
    40   20   21 ar
    41   21   22 ar
    42   21   48 1
    43   22   23 ar
    44   22   49 1
    45   23   24 ar
    46   23   27 1
    47   24   25 ar
    48   24   26 1
    49   25   50 1
    50   27   28 am
    51   27   51 1
    52   28   29 2
    53   28   30 1
    54   30   52 1
    55   30   53 1
    56   30   54 1
@<TRIPOS>MOLECULE
ZINC15902418
   61    64     0     0     0
SMALL
USER_CHARGES
N-[3-[N'-[2-(1-adamantyl)acetyl]hydrazino]-3-oxo-propyl]-2-methoxy-benzamide
@<TRIPOS>ATOM
      1 C1         -4.9923    3.5288    0.0449 C.3       1 <0>         0.0199
      2 O1         -3.7066    2.9051    0.0354 O.3       1 <0>        -0.2812
      3 C2         -3.6801    1.5488    0.0279 C.ar      1 <0>         0.1866
      4 C3         -4.8657    0.8288    0.0291 C.ar      1 <0>        -0.2200
      5 C4         -4.8372   -0.5514    0.0206 C.ar      1 <0>        -0.0499
      6 C5         -3.6278   -1.2274    0.0112 C.ar      1 <0>        -0.1675
      7 C6         -2.4406   -0.5281    0.0049 C.ar      1 <0>        -0.0480
      8 C7         -2.4548    0.8688    0.0184 C.ar      1 <0>        -0.1766
      9 C8         -1.1873    1.6238    0.0165 C.2       1 <0>         0.5615
     10 O2         -1.2038    2.8395    0.0232 O.2       1 <0>        -0.5112
     11 N1         -0.0111    0.9658    0.0074 N.am      1 <0>        -0.7347
     12 C9          1.2475    1.7155   -0.0006 C.3       1 <0>         0.1373
     13 C10         2.4238    0.7372   -0.0171 C.3       1 <0>        -0.1440
     14 C11         3.7185    1.5084   -0.0253 C.2       1 <0>         0.5193
     15 O3          3.7020    2.7211   -0.0187 O.2       1 <0>        -0.5308
     16 N2          4.8947    0.8505   -0.0401 N.am      1 <0>        -0.5242
     17 N3          6.0983    1.5674   -0.0478 N.am      1 <0>        -0.5267
     18 C12         7.2745    0.9095   -0.0625 C.2       1 <0>         0.5164
     19 O4          7.2909   -0.3032   -0.0692 O.2       1 <0>        -0.5255
     20 C13         8.5692    1.6807   -0.0707 C.3       1 <0>        -0.1249
     21 C14         9.7454    0.7024   -0.0872 C.3       1 <0>        -0.0331
     22 C15         9.6882   -0.1850    1.1579 C.3       1 <0>        -0.1139
     23 C16        10.8645   -1.1633    1.1414 C.3       1 <0>        -0.0834
     24 C17        12.1789   -0.3803    1.1330 C.3       1 <0>        -0.1098
     25 C18        12.2361    0.5070   -0.1121 C.3       1 <0>        -0.0841
     26 C19        11.0599    1.4853   -0.0956 C.3       1 <0>        -0.1034
     27 C20        12.1551   -0.3669   -1.3653 C.3       1 <0>        -0.1098
     28 C21        10.8406   -1.1498   -1.3569 C.3       1 <0>        -0.0834
     29 C22        10.7834   -2.0372   -0.1118 C.3       1 <0>        -0.1058
     30 C23         9.6644   -0.1715   -1.3405 C.3       1 <0>        -0.1139
     31 H1         -5.5392    3.2203    0.9358 H         1 <0>         0.0572
     32 H2         -4.8706    4.6120    0.0503 H         1 <0>         0.1044
     33 H3         -5.5477    3.2300   -0.8441 H         1 <0>         0.0573
     34 H4         -5.8124    1.3487    0.0365 H         1 <0>         0.1363
     35 H5         -5.7630   -1.1075    0.0209 H         1 <0>         0.1312
     36 H6         -3.6157   -2.3073    0.0041 H         1 <0>         0.1316
     37 H7         -1.5003   -1.0592   -0.0070 H         1 <0>         0.1318
     38 H8          0.0021   -0.0041    0.0020 H         1 <0>         0.3977
     39 H9          1.2883    2.3477   -0.8877 H         1 <0>         0.0800
     40 H10         1.3053    2.3381    0.8922 H         1 <0>         0.0801
     41 H11         2.3830    0.1051    0.8699 H         1 <0>         0.1086
     42 H12         2.3661    0.1146   -0.9100 H         1 <0>         0.1086
     43 H13         4.9078   -0.1194   -0.0454 H         1 <0>         0.4326
     44 H14         6.0851    2.5373   -0.0424 H         1 <0>         0.4320
     45 H15         8.6099    2.3128   -0.9578 H         1 <0>         0.1003
     46 H16         8.6269    2.3033    0.8221 H         1 <0>         0.1003
     47 H17         9.7460    0.4376    2.0507 H         1 <0>         0.0533
     48 H18         8.7518   -0.7427    1.1638 H         1 <0>         0.0895
     49 H19        10.8237   -1.7954    2.0284 H         1 <0>         0.0665
     50 H20        13.0169   -1.0773    1.1213 H         1 <0>         0.0602
     51 H21        12.2367    0.2423    2.0259 H         1 <0>         0.0600
     52 H22        13.1726    1.0648   -0.1180 H         1 <0>         0.0690
     53 H23        11.1006    2.1175   -0.9826 H         1 <0>         0.0630
     54 H24        11.1176    2.1079    0.7973 H         1 <0>         0.0630
     55 H25        12.1958    0.2653   -2.2523 H         1 <0>         0.0600
     56 H26        12.9931   -1.0638   -1.3770 H         1 <0>         0.0602
     57 H27        10.7829   -1.7724   -2.2498 H         1 <0>         0.0665
     58 H28        11.6214   -2.7341   -0.1236 H         1 <0>         0.0575
     59 H29         9.8470   -2.5950   -0.1059 H         1 <0>         0.0630
     60 H30         8.7279   -0.7293   -1.3345 H         1 <0>         0.0895
     61 H31         9.7051    0.4606   -2.2275 H         1 <0>         0.0533
@<TRIPOS>BOND
     1    1    2 1
     2    1   31 1
     3    1   32 1
     4    1   33 1
     5    2    3 1
     6    3    8 ar
     7    3    4 ar
     8    4    5 ar
     9    4   34 1
    10    5    6 ar
    11    5   35 1
    12    6    7 ar
    13    6   36 1
    14    7    8 ar
    15    7   37 1
    16    8    9 1
    17    9   10 2
    18    9   11 am
    19   11   12 1
    20   11   38 1
    21   12   13 1
    22   12   39 1
    23   12   40 1
    24   13   14 1
    25   13   41 1
    26   13   42 1
    27   14   15 2
    28   14   16 am
    29   16   17 1
    30   16   43 1
    31   17   18 am
    32   17   44 1
    33   18   19 2
    34   18   20 1
    35   20   21 1
    36   20   45 1
    37   20   46 1
    38   21   26 1
    39   21   30 1
    40   21   22 1
    41   22   23 1
    42   22   47 1
    43   22   48 1
    44   23   29 1
    45   23   24 1
    46   23   49 1
    47   24   25 1
    48   24   50 1
    49   24   51 1
    50   25   26 1
    51   25   27 1
    52   25   52 1
    53   26   53 1
    54   26   54 1
    55   27   28 1
    56   27   55 1
    57   27   56 1
    58   28   29 1
    59   28   30 1
    60   28   57 1
    61   29   58 1
    62   29   59 1
    63   30   60 1
    64   30   61 1
@<TRIPOS>MOLECULE
ZINC27997196
   67    70     0     0     0
SMALL
USER_CHARGES
N-[(1R)-1-[(3-acetamido-4-methoxy-phenyl)carbamoyl]-2-methyl-propyl]adamantane-1-carboxamide
@<TRIPOS>ATOM
      1 C1          0.7617   -1.5175   -2.3607 C.3       1 <0>        -0.1495
      2 C2          1.8135   -0.8448   -1.4764 C.3       1 <0>        -0.0994
      3 C3          2.1220    0.5507   -2.0224 C.3       1 <0>        -0.1404
      4 C4          1.2787   -0.7267   -0.0478 C.3       1 <0>         0.1362
      5 H1          1.9662   -0.1458    0.5846 H         1 <0>         0.1167
      6 C5          1.0908   -2.1042    0.5338 C.2       1 <0>         0.5187
      7 O1         -0.0086   -2.4637    0.8987 O.2       1 <0>        -0.5204
      8 N1          2.1445   -2.9368    0.6484 N.am      1 <0>        -0.6742
      9 C6          1.9964   -4.1686    1.2991 C.ar      1 <0>         0.1356
     10 C7          1.0140   -4.3284    2.2675 C.ar      1 <0>        -0.1051
     11 C8          0.8621   -5.5440    2.9068 C.ar      1 <0>        -0.1689
     12 C9          1.6970   -6.6037    2.5914 C.ar      1 <0>         0.0851
     13 C10         2.6873   -6.4456    1.6246 C.ar      1 <0>         0.1417
     14 C11         2.8351   -5.2270    0.9797 C.ar      1 <0>        -0.1172
     15 N2          3.5323   -7.5163    1.3040 N.am      1 <0>        -0.6775
     16 C12         4.8193   -7.2848    0.9779 C.2       1 <0>         0.5128
     17 O2          5.2246   -6.1458    0.8797 O.2       1 <0>        -0.5354
     18 C13         5.7549   -8.4411    0.7352 C.3       1 <0>        -0.1754
     19 O3          1.5501   -7.7980    3.2260 O.3       1 <0>        -0.3191
     20 C14         0.5141   -7.8887    4.2061 C.3       1 <0>         0.0255
     21 N3         -0.0067   -0.0241   -0.0641 N.am      1 <0>        -0.7225
     22 C15        -0.0384    1.3233   -0.0495 C.2       1 <0>         0.5296
     23 O4          0.9971    1.9540   -0.0229 O.2       1 <0>        -0.5349
     24 C16        -1.3606    2.0461   -0.0726 C.3       1 <0>        -0.0650
     25 C17        -2.1833    1.6437    1.1531 C.3       1 <0>        -0.1008
     26 C18        -3.5256    2.3776    1.1296 C.3       1 <0>        -0.0841
     27 C19        -3.2816    3.8878    1.1526 C.3       1 <0>        -0.1110
     28 C20        -2.4589    4.2902   -0.0730 C.3       1 <0>        -0.0870
     29 C21        -1.1166    3.5564   -0.0496 C.3       1 <0>        -0.0872
     30 C22        -3.2225    3.9163   -1.3450 C.3       1 <0>        -0.1107
     31 C23        -3.4665    2.4060   -1.3680 C.3       1 <0>        -0.0841
     32 C24        -4.2892    2.0036   -0.1424 C.3       1 <0>        -0.1105
     33 C25        -2.1242    1.6721   -1.3446 C.3       1 <0>        -0.0997
     34 H2          0.5400   -2.5208   -1.9681 H         1 <0>         0.0530
     35 H3          1.1462   -1.6024   -3.3878 H         1 <0>         0.0610
     36 H4         -0.1572   -0.9129   -2.3620 H         1 <0>         0.0607
     37 H5          2.7324   -1.4494   -1.4752 H         1 <0>         0.0799
     38 H6          2.8782    1.0343   -1.3866 H         1 <0>         0.0633
     39 H7          1.2031    1.1553   -2.0237 H         1 <0>         0.0613
     40 H8          2.5065    0.4658   -3.0495 H         1 <0>         0.0517
     41 H9          3.1207   -2.6491    0.2310 H         1 <0>         0.4383
     42 H10         0.3648   -3.5025    2.5183 H         1 <0>         0.1456
     43 H11         0.0946   -5.6668    3.6567 H         1 <0>         0.1350
     44 H12         3.6024   -5.1017    0.2300 H         1 <0>         0.1493
     45 H13         3.1452   -8.5458    1.3185 H         1 <0>         0.4401
     46 H14         6.7544   -8.0573    0.4828 H         1 <0>         0.0965
     47 H15         5.3753   -9.0513   -0.0976 H         1 <0>         0.0919
     48 H16         5.8178   -9.0587    1.6433 H         1 <0>         0.0926
     49 H17         0.5057   -8.9003    4.6381 H         1 <0>         0.1025
     50 H18        -0.4575   -7.6841    3.7326 H         1 <0>         0.0571
     51 H19         0.6967   -7.1516    5.0019 H         1 <0>         0.0566
     52 H20        -0.9459   -0.5962   -0.0883 H         1 <0>         0.4296
     53 H21        -2.3587    0.5579    1.1366 H         1 <0>         0.0683
     54 H22        -1.6343    1.9126    2.0676 H         1 <0>         0.0671
     55 H23        -4.1171    2.0883    2.0107 H         1 <0>         0.0740
     56 H24        -4.2467    4.4154    1.1358 H         1 <0>         0.0641
     57 H25        -2.7326    4.1567    2.0671 H         1 <0>         0.0629
     58 H26        -2.2835    5.3760   -0.0565 H         1 <0>         0.0737
     59 H27        -0.5676    3.8252    0.8649 H         1 <0>         0.0689
     60 H28        -0.5251    3.8457   -0.9307 H         1 <0>         0.0692
     61 H29        -4.1875    4.4440   -1.3618 H         1 <0>         0.0642
     62 H30        -2.6311    4.2057   -2.2262 H         1 <0>         0.0630
     63 H31        -4.0155    2.1371   -2.2825 H         1 <0>         0.0740
     64 H32        -4.4646    0.9178   -0.1589 H         1 <0>         0.0638
     65 H33        -5.2543    2.5312   -0.1592 H         1 <0>         0.0649
     66 H34        -1.5327    1.9614   -2.2258 H         1 <0>         0.0676
     67 H35        -2.2996    0.5863   -1.3611 H         1 <0>         0.0662
@<TRIPOS>BOND
     1    1    2 1
     2    1   34 1
     3    1   35 1
     4    1   36 1
     5    2    3 1
     6    2    4 1
     7    2   37 1
     8    3   38 1
     9    3   39 1
    10    3   40 1
    11    4    5 1
    12    4    6 1
    13    4   21 1
    14    6    7 2
    15    6    8 am
    16    8    9 1
    17    8   41 1
    18    9   14 ar
    19    9   10 ar
    20   10   11 ar
    21   10   42 1
    22   11   12 ar
    23   11   43 1
    24   12   13 ar
    25   12   19 1
    26   13   14 ar
    27   13   15 1
    28   14   44 1
    29   15   16 am
    30   15   45 1
    31   16   17 2
    32   16   18 1
    33   18   46 1
    34   18   47 1
    35   18   48 1
    36   19   20 1
    37   20   49 1
    38   20   50 1
    39   20   51 1
    40   21   22 am
    41   21   52 1
    42   22   23 2
    43   22   24 1
    44   24   29 1
    45   24   33 1
    46   24   25 1
    47   25   26 1
    48   25   53 1
    49   25   54 1
    50   26   32 1
    51   26   27 1
    52   26   55 1
    53   27   28 1
    54   27   56 1
    55   27   57 1
    56   28   29 1
    57   28   30 1
    58   28   58 1
    59   29   59 1
    60   29   60 1
    61   30   31 1
    62   30   61 1
    63   30   62 1
    64   31   32 1
    65   31   33 1
    66   31   63 1
    67   32   64 1
    68   32   65 1
    69   33   66 1
    70   33   67 1
@<TRIPOS>MOLECULE
ZINC40051412
   54    57     0     0     0
SMALL
USER_CHARGES

@<TRIPOS>ATOM
      1 C1          0.7403    0.2244    0.0646 C.3       1 <0>        -0.1495
      2 C2         -0.0279   -1.0901   -0.0863 C.3       1 <0>        -0.0883
      3 C3         -1.5087   -0.8160   -0.0288 C.ar      1 <0>        -0.1084
      4 C4         -2.1875   -0.9331    1.1685 C.ar      1 <0>        -0.0977
      5 C5         -3.5460   -0.6813    1.2222 C.ar      1 <0>        -0.1331
      6 C6         -4.2296   -0.3116    0.0781 C.ar      1 <0>        -0.1054
      7 C7         -3.5571   -0.1931   -1.1220 C.ar      1 <0>        -0.1145
      8 C8         -2.1912   -0.4398   -1.1783 C.ar      1 <0>         0.1607
      9 N1         -1.5059   -0.3148   -2.3908 N.pl3     1 <0>        -0.6206
     10 C9         -2.1637   -0.5467   -3.5831 C.ar      1 <0>         0.6288
     11 N2         -1.5477   -0.3150   -4.7402 N.ar      1 <0>        -0.6173
     12 C10        -2.1762   -0.5365   -5.8812 C.ar      1 <0>         0.4514
     13 N3         -3.4182   -0.9884   -5.8787 N.ar      1 <0>        -0.6187
     14 C11        -4.0408   -1.2225   -4.7258 C.ar      1 <0>         0.6304
     15 N4         -3.4101   -1.0065   -3.5765 N.ar      1 <0>        -0.6347
     16 N5         -5.3376   -1.6943   -4.7242 N.pl3     1 <0>        -0.8014
     17 C12        -1.4751   -0.2728   -7.1889 C.3       1 <0>        -0.0477
     18 S1         -0.6086   -1.7740   -7.7239 S.3       1 <0>        -0.1326
     19 C13         0.1723   -1.2954   -9.2897 C.3       1 <0>        -0.1354
     20 C14         0.9356   -2.4682   -9.8494 C.2       1 <0>         0.5391
     21 O1          0.9512   -3.5229   -9.2509 O.2       1 <0>        -0.5113
     22 N6          1.6008   -2.3449  -11.0150 N.am      1 <0>        -0.6107
     23 C15         2.3439   -3.4843  -11.5735 C.3       1 <0>         0.1193
     24 C16         1.6796   -3.8910  -12.8980 C.3       1 <0>        -0.0594
     25 C17         1.3540   -2.6540  -13.6700 C.2       1 <0>        -0.1372
     26 C18         1.2940   -1.3740  -13.2122 C.2       1 <0>        -0.1487
     27 C19         0.9564   -0.3920  -14.1421 C.2       1 <0>        -0.1468
     28 C20         0.7133   -0.7332  -15.4283 C.2       1 <0>        -0.1719
     29 S2          0.9543   -2.5029  -15.3913 S.3       1 <0>         0.0501
     30 C21         1.5888   -1.0720  -11.7485 C.3       1 <0>         0.1708
     31 H1          1.8113    0.0262    0.0230 H         1 <0>         0.0621
     32 H2          0.4644    0.9014   -0.7439 H         1 <0>         0.0514
     33 H3          0.4924    0.6822    1.0223 H         1 <0>         0.0602
     34 H4          0.2199   -1.5478   -1.0440 H         1 <0>         0.0694
     35 H5          0.2479   -1.7670    0.7222 H         1 <0>         0.0783
     36 H6         -1.6567   -1.2219    2.0635 H         1 <0>         0.1256
     37 H7         -4.0745   -0.7739    2.1595 H         1 <0>         0.1227
     38 H8         -5.2908   -0.1156    0.1235 H         1 <0>         0.1237
     39 H9         -4.0916    0.0952   -2.0151 H         1 <0>         0.1392
     40 H10        -0.5686   -0.0651   -2.3946 H         1 <0>         0.4266
     41 H11        -5.7960   -1.8556   -5.5637 H         1 <0>         0.4204
     42 H12        -5.7907   -1.8647   -3.8836 H         1 <0>         0.4187
     43 H13        -2.2084    0.0118   -7.9434 H         1 <0>         0.1146
     44 H14        -0.7553    0.5353   -7.0587 H         1 <0>         0.1147
     45 H15        -0.5956   -0.9893  -10.0001 H         1 <0>         0.1150
     46 H16         0.8575   -0.4658   -9.1154 H         1 <0>         0.1156
     47 H17         3.3788   -3.1945  -11.7553 H         1 <0>         0.0808
     48 H18         2.3133   -4.3207  -10.8752 H         1 <0>         0.1076
     49 H19         2.3646   -4.5124  -13.4749 H         1 <0>         0.0963
     50 H20         0.7640   -4.4456  -12.6926 H         1 <0>         0.0908
     51 H21         0.8887    0.6414  -13.8355 H         1 <0>         0.1343
     52 H22         0.4432   -0.1004  -16.2608 H         1 <0>         0.1885
     53 H23         0.8146   -0.4201  -11.3438 H         1 <0>         0.0962
     54 H24         2.5616   -0.5877  -11.6635 H         1 <0>         0.0877
@<TRIPOS>BOND
     1    1    2 1
     2    1   31 1
     3    1   32 1
     4    1   33 1
     5    2    3 1
     6    2   34 1
     7    2   35 1
     8    3    8 ar
     9    3    4 ar
    10    4    5 ar
    11    4   36 1
    12    5    6 ar
    13    5   37 1
    14    6    7 ar
    15    6   38 1
    16    7    8 ar
    17    7   39 1
    18    8    9 1
    19    9   10 1
    20    9   40 1
    21   10   15 ar
    22   10   11 ar
    23   11   12 ar
    24   12   13 ar
    25   12   17 1
    26   13   14 ar
    27   14   15 ar
    28   14   16 1
    29   16   41 1
    30   16   42 1
    31   17   18 1
    32   17   43 1
    33   17   44 1
    34   18   19 1
    35   19   20 1
    36   19   45 1
    37   19   46 1
    38   20   21 2
    39   20   22 am
    40   22   30 1
    41   22   23 1
    42   23   24 1
    43   23   47 1
    44   23   48 1
    45   24   25 1
    46   24   49 1
    47   24   50 1
    48   25   29 1
    49   25   26 2
    50   26   27 1
    51   26   30 1
    52   27   28 2
    53   27   51 1
    54   28   29 1
    55   28   52 1
    56   30   53 1
    57   30   54 1
@<TRIPOS>MOLECULE
ZINC59988249
   47    48     0     0     0
SMALL
USER_CHARGES

@<TRIPOS>ATOM
      1 C1          0.0094    1.5258    0.0382 C.3       1 <0>        -0.1578
      2 C2          0.0223   -0.0041    0.0221 C.3       1 <0>         0.1383
      3 C3          0.7622   -0.5209    1.2575 C.3       1 <0>        -0.1788
      4 N1         -1.3546   -0.5042    0.0327 N.pl3     1 <0>        -1.1097
      5 S1         -1.7414   -1.8824   -0.7999 S.o2      1 <0>         2.6936
      6 O1         -3.1247   -2.1178   -0.5755 O.2       1 <0>        -0.9495
      7 O2         -1.1952   -1.7361   -2.1036 O.2       1 <0>        -0.9473
      8 C4         -0.8739   -3.2129   -0.0369 C.ar      1 <0>        -0.6851
      9 C5          0.3976   -3.5465   -0.4704 C.ar      1 <0>         0.0182
     10 C6          1.0859   -4.5889    0.1224 C.ar      1 <0>        -0.1373
     11 C7          0.5073   -5.3052    1.1523 C.ar      1 <0>         0.0661
     12 C8         -0.7757   -4.9732    1.5941 C.ar      1 <0>        -0.1504
     13 C9         -1.4614   -3.9152    0.9942 C.ar      1 <0>         0.0285
     14 C10        -1.4017   -5.7343    2.6952 C.2       1 <0>         0.5614
     15 O3         -0.8002   -6.6518    3.2187 O.2       1 <0>        -0.5070
     16 N2         -2.6397   -5.4113    3.1189 N.am      1 <0>        -0.7171
     17 C11        -3.2604   -6.1659    4.2105 C.3       1 <0>         0.1040
     18 C12        -4.6326   -5.6090    4.4894 C.2       1 <0>         0.5107
     19 O4         -5.0510   -4.6737    3.8403 O.2       1 <0>        -0.5113
     20 N3         -5.3950   -6.1501    5.4602 N.am      1 <0>        -0.6669
     21 C13        -6.6283   -5.5732    5.7849 C.ar      1 <0>         0.1438
     22 C14        -7.0695   -5.5699    7.1016 C.ar      1 <0>        -0.1288
     23 C15        -8.2867   -5.0001    7.4193 C.ar      1 <0>        -0.0914
     24 C16        -9.0666   -4.4327    6.4269 C.ar      1 <0>        -0.0466
     25 C17        -8.6292   -4.4347    5.1140 C.ar      1 <0>        -0.0910
     26 C18        -7.4101   -4.9982    4.7918 C.ar      1 <0>        -0.1069
     27 Cl1       -10.5964   -3.7178    6.8295 Cl        1 <0>        -0.0663
     28 Cl2         1.3720   -6.6145    1.8950 Cl        1 <0>        -0.0093
     29 H1          1.0339    1.8979    0.0303 H         1 <0>         0.0735
     30 H2         -0.5177    1.8940   -0.8419 H         1 <0>         0.0663
     31 H3         -0.4972    1.8753    0.9378 H         1 <0>         0.0639
     32 H4          0.5289   -0.3537   -0.8775 H         1 <0>         0.0940
     33 H5          0.2556   -0.1714    2.1571 H         1 <0>         0.0660
     34 H6          0.7714   -1.6108    1.2460 H         1 <0>         0.0577
     35 H7          1.7867   -0.1488    1.2496 H         1 <0>         0.0734
     36 H8         -2.0397   -0.0281    0.5275 H         1 <0>         0.4216
     37 H9          0.8541   -2.9901   -1.2756 H         1 <0>         0.1568
     38 H10         2.0777   -4.8440   -0.2207 H         1 <0>         0.1547
     39 H11        -2.4519   -3.6505    1.3338 H         1 <0>         0.1522
     40 H12        -3.1197   -4.6792    2.7012 H         1 <0>         0.4124
     41 H13        -3.3450   -7.2145    3.9252 H         1 <0>         0.1095
     42 H14        -2.6451   -6.0816    5.1063 H         1 <0>         0.1097
     43 H15        -5.0890   -6.9394    5.9339 H         1 <0>         0.4177
     44 H16        -6.4614   -6.0129    7.8765 H         1 <0>         0.1373
     45 H17        -8.6305   -4.9976    8.4432 H         1 <0>         0.1394
     46 H18        -9.2399   -3.9916    4.3412 H         1 <0>         0.1390
     47 H19        -7.0672   -4.9955    3.7677 H         1 <0>         0.1492
@<TRIPOS>BOND
     1    1    2 1
     2    1   29 1
     3    1   30 1
     4    1   31 1
     5    2    3 1
     6    2    4 1
     7    2   32 1
     8    3   33 1
     9    3   34 1
    10    3   35 1
    11    4    5 1
    12    4   36 1
    13    5    6 2
    14    5    7 2
    15    5    8 1
    16    8   13 ar
    17    8    9 ar
    18    9   10 ar
    19    9   37 1
    20   10   11 ar
    21   10   38 1
    22   11   12 ar
    23   11   28 1
    24   12   13 ar
    25   12   14 1
    26   13   39 1
    27   14   15 2
    28   14   16 am
    29   16   17 1
    30   16   40 1
    31   17   18 1
    32   17   41 1
    33   17   42 1
    34   18   19 2
    35   18   20 am
    36   20   21 1
    37   20   43 1
    38   21   26 ar
    39   21   22 ar
    40   22   23 ar
    41   22   44 1
    42   23   24 ar
    43   23   45 1
    44   24   25 ar
    45   24   27 1
    46   25   26 ar
    47   25   46 1
    48   26   47 1
@<TRIPOS>MOLECULE
ZINC05180387
   50    53     0     0     0
SMALL
USER_CHARGES
2-(amino-ethyl-methyl-BLAHyl)sulfanyl-N-(2-furylmethyl)acetamide
@<TRIPOS>ATOM
      1 C1         -0.0500   -4.7575    2.3317 C.3       1 <0>        -0.1528
      2 C2          1.0031   -4.0170    1.5049 C.3       1 <0>        -0.1102
      3 C3          0.7539   -2.5101    1.5934 C.3       1 <0>         0.1176
      4 C4          1.8090   -1.7715    0.7652 C.3       1 <0>        -0.0932
      5 C5          1.4041   -0.3013    0.6814 C.2       1 <0>        -0.0638
      6 C6          0.1285    0.0533    0.9654 C.2       1 <0>        -0.2102
      7 S1          0.0758    1.8129    0.7562 S.3       1 <0>         0.1534
      8 C7          1.7574    2.0732    0.2892 C.ar      1 <0>         0.1475
      9 C8          2.3131    0.7679    0.3111 C.ar      1 <0>        -0.2547
     10 C9          3.6917    0.6483   -0.0294 C.ar      1 <0>         0.5108
     11 N1          4.3180    1.7820   -0.3343 N.ar      1 <0>        -0.6054
     12 C10         3.7346    2.9714   -0.3342 C.ar      1 <0>         0.3378
     13 N2          2.4483    3.1507   -0.0248 N.ar      1 <0>        -0.4762
     14 S2          4.7008    4.3815   -0.7617 S.3       1 <0>         0.1129
     15 C11         6.2968    3.5864   -1.0727 C.3       1 <0>        -0.1559
     16 C12         7.3099    4.6304   -1.4659 C.2       1 <0>         0.5342
     17 O1          6.9850    5.7971   -1.5297 O.2       1 <0>        -0.5182
     18 N3          8.5772    4.2675   -1.7468 N.am      1 <0>        -0.7223
     19 C13         9.5621    5.2824   -2.1291 C.3       1 <0>         0.2044
     20 C14        10.8909    4.6204   -2.3881 C.2       1 <0>        -0.0447
     21 C15        11.3141    4.1422   -3.5720 C.2       1 <0>        -0.1787
     22 C16        12.6070    3.6106   -3.3605 C.2       1 <0>        -0.2184
     23 C17        12.8965    3.7957   -2.0600 C.2       1 <0>        -0.0246
     24 O2         11.8558    4.4130   -1.4772 O.3       1 <0>        -0.1712
     25 N4          4.3402   -0.5733   -0.0417 N.pl3     1 <0>        -0.8233
     26 C18        -0.9787   -0.8703    1.3669 C.3       1 <0>         0.1438
     27 O3         -0.5547   -2.2157    1.0972 O.3       1 <0>        -0.3536
     28 C19         0.8520   -2.0645    3.0538 C.3       1 <0>        -0.1856
     29 H1          0.0150   -4.4390    3.3721 H         1 <0>         0.0565
     30 H2         -1.0428   -4.5299    1.9434 H         1 <0>         0.0648
     31 H3          0.1275   -5.8311    2.2686 H         1 <0>         0.0557
     32 H4          0.9381   -4.3356    0.4645 H         1 <0>         0.0728
     33 H5          1.9958   -4.2446    1.8932 H         1 <0>         0.0773
     34 H6          1.8552   -2.1981   -0.2367 H         1 <0>         0.0915
     35 H7          2.7825   -1.8581    1.2479 H         1 <0>         0.0873
     36 H8          6.6315    3.0776   -0.1687 H         1 <0>         0.1269
     37 H9          6.1904    2.8612   -1.8795 H         1 <0>         0.1273
     38 H10         8.8371    3.3343   -1.6959 H         1 <0>         0.4070
     39 H11         9.2274    5.7912   -3.0331 H         1 <0>         0.1039
     40 H12         9.6685    6.0075   -1.3223 H         1 <0>         0.0899
     41 H13        10.7704    4.1603   -4.5049 H         1 <0>         0.1520
     42 H14        13.2405    3.1449   -4.1009 H         1 <0>         0.1523
     43 H15        13.8126    3.5024   -1.5689 H         1 <0>         0.2066
     44 H16         3.8291   -1.3944    0.0321 H         1 <0>         0.4158
     45 H17         5.3060   -0.6088   -0.1242 H         1 <0>         0.4110
     46 H18        -1.1863   -0.7558    2.4308 H         1 <0>         0.0811
     47 H19        -1.8750   -0.6438    0.7895 H         1 <0>         0.1149
     48 H20         0.6793   -0.9902    3.1183 H         1 <0>         0.0645
     49 H21         0.1016   -2.5893    3.6450 H         1 <0>         0.0738
     50 H22         1.8451   -2.2966    3.4385 H         1 <0>         0.0682
@<TRIPOS>BOND
     1    1    2 1
     2    1   29 1
     3    1   30 1
     4    1   31 1
     5    2    3 1
     6    2   32 1
     7    2   33 1
     8    3   27 1
     9    3    4 1
    10    3   28 1
    11    4    5 1
    12    4   34 1
    13    4   35 1
    14    5    9 1
    15    5    6 2
    16    6    7 1
    17    6   26 1
    18    7    8 1
    19    8   13 ar
    20    8    9 ar
    21    9   10 ar
    22   10   11 ar
    23   10   25 1
    24   11   12 ar
    25   12   13 ar
    26   12   14 1
    27   14   15 1
    28   15   16 1
    29   15   36 1
    30   15   37 1
    31   16   17 2
    32   16   18 am
    33   18   19 1
    34   18   38 1
    35   19   20 1
    36   19   39 1
    37   19   40 1
    38   20   24 1
    39   20   21 2
    40   21   22 1
    41   21   41 1
    42   22   23 2
    43   22   42 1
    44   23   24 1
    45   23   43 1
    46   25   44 1
    47   25   45 1
    48   26   27 1
    49   26   46 1
    50   26   47 1
    51   28   48 1
    52   28   49 1
    53   28   50 1
@<TRIPOS>MOLECULE
ZINC12507949
   51    53     0     0     0
SMALL
USER_CHARGES
N-[4-(benzamidocarbamoyl)phenyl]-3,4-dimethyl-benzenesulfonamide
@<TRIPOS>ATOM
      1 C1          0.1789   -1.2733   -6.6020 C.3       1 <0>        -0.1301
      2 C2          0.6719   -1.6764   -5.2361 C.ar      1 <0>        -0.0246
      3 C3          0.0483   -2.7029   -4.5513 C.ar      1 <0>        -0.1372
      4 C4          0.5035   -3.0757   -3.3007 C.ar      1 <0>        -0.0194
      5 C5          1.5760   -2.4156   -2.7302 C.ar      1 <0>        -0.6794
      6 C6          2.1997   -1.3898   -3.4151 C.ar      1 <0>        -0.0127
      7 C7          1.7477   -1.0203   -4.6683 C.ar      1 <0>        -0.1057
      8 C8          2.4277    0.0982   -5.4150 C.3       1 <0>        -0.1213
      9 S1          2.1524   -2.8869   -1.1332 S.o2      1 <0>         2.6890
     10 O1          3.4733   -2.3774   -1.0115 O.2       1 <0>        -0.9449
     11 O2          1.8517   -4.2677   -0.9841 O.2       1 <0>        -0.9452
     12 N1          1.2290   -2.0786   -0.0213 N.pl3     1 <0>        -1.0565
     13 C9          1.2365   -0.6885    0.0099 C.ar      1 <0>         0.1783
     14 C10         0.0359    0.0108    0.0983 C.ar      1 <0>        -0.1356
     15 C11         0.0400    1.3865    0.1289 C.ar      1 <0>        -0.0319
     16 C12         1.2514    2.0819    0.0712 C.ar      1 <0>        -0.1408
     17 C13         2.4552    1.3768   -0.0175 C.ar      1 <0>        -0.0589
     18 C14         2.4445    0.0011   -0.0477 C.ar      1 <0>        -0.1596
     19 C15         1.2592    3.5568    0.1033 C.2       1 <0>         0.5649
     20 O3          0.2114    4.1688    0.1801 O.2       1 <0>        -0.5339
     21 N2          2.4279    4.2258    0.0476 N.am      1 <0>        -0.5178
     22 N3          2.4354    5.6264    0.0781 N.am      1 <0>        -0.5182
     23 C16         3.6041    6.2955    0.0224 C.2       1 <0>         0.5633
     24 O4          4.6516    5.6836   -0.0543 O.2       1 <0>        -0.5327
     25 C17         3.6120    7.7735    0.0546 C.ar      1 <0>        -0.1318
     26 C18         2.4106    8.4793    0.1369 C.ar      1 <0>        -0.0854
     27 C19         2.4253    9.8583    0.1719 C.ar      1 <0>        -0.1247
     28 C20         3.6268   10.5420    0.1150 C.ar      1 <0>        -0.0873
     29 C21         4.8209    9.8487    0.0276 C.ar      1 <0>        -0.1258
     30 C22         4.8205    8.4694   -0.0030 C.ar      1 <0>        -0.0535
     31 H1          0.7010   -1.8538   -7.3626 H         1 <0>         0.0815
     32 H2         -0.8922   -1.4626   -6.6721 H         1 <0>         0.0735
     33 H3          0.3714   -0.2120   -6.7591 H         1 <0>         0.0780
     34 H4         -0.7921   -3.2158   -4.9952 H         1 <0>         0.1347
     35 H5          0.0189   -3.8803   -2.7674 H         1 <0>         0.1393
     36 H6          3.0403   -0.8771   -2.9714 H         1 <0>         0.1416
     37 H7          3.2329   -0.3097   -6.0261 H         1 <0>         0.0762
     38 H8          1.7032    0.6000   -6.0565 H         1 <0>         0.0745
     39 H9          2.8389    0.8134   -4.7026 H         1 <0>         0.0708
     40 H10         0.6829   -2.5749    0.6083 H         1 <0>         0.4314
     41 H11        -0.8995   -0.5270    0.1432 H         1 <0>         0.1405
     42 H12        -0.8919    1.9286    0.1930 H         1 <0>         0.1456
     43 H13         3.3926    1.9112   -0.0626 H         1 <0>         0.1358
     44 H14         3.3742   -0.5442   -0.1159 H         1 <0>         0.1660
     45 H15         3.2638    3.7375   -0.0136 H         1 <0>         0.4331
     46 H16         1.5995    6.1147    0.1393 H         1 <0>         0.4328
     47 H17         1.4718    7.9468    0.1769 H         1 <0>         0.1270
     48 H18         1.4966   10.4055    0.2397 H         1 <0>         0.1329
     49 H19         3.6325   11.6218    0.1385 H         1 <0>         0.1309
     50 H20         5.7553   10.3883   -0.0165 H         1 <0>         0.1340
     51 H21         5.7532    7.9294   -0.0716 H         1 <0>         0.1393
@<TRIPOS>BOND
     1    1    2 1
     2    1   31 1
     3    1   32 1
     4    1   33 1
     5    2    7 ar
     6    2    3 ar
     7    3    4 ar
     8    3   34 1
     9    4    5 ar
    10    4   35 1
    11    5    6 ar
    12    5    9 1
    13    6    7 ar
    14    6   36 1
    15    7    8 1
    16    8   37 1
    17    8   38 1
    18    8   39 1
    19    9   10 2
    20    9   11 2
    21    9   12 1
    22   12   13 1
    23   12   40 1
    24   13   18 ar
    25   13   14 ar
    26   14   15 ar
    27   14   41 1
    28   15   16 ar
    29   15   42 1
    30   16   17 ar
    31   16   19 1
    32   17   18 ar
    33   17   43 1
    34   18   44 1
    35   19   20 2
    36   19   21 am
    37   21   22 1
    38   21   45 1
    39   22   23 am
    40   22   46 1
    41   23   24 2
    42   23   25 1
    43   25   30 ar
    44   25   26 ar
    45   26   27 ar
    46   26   47 1
    47   27   28 ar
    48   27   48 1
    49   28   29 ar
    50   28   49 1
    51   29   30 ar
    52   29   50 1
    53   30   51 1
@<TRIPOS>MOLECULE
ZINC27947958
   51    53     0     0     0
SMALL
USER_CHARGES
2-[[4-(benzenesulfonamido)benzoyl]amino]-N-ethyl-benzamide
@<TRIPOS>ATOM
      1 C1          1.3556    1.0029   -3.8177 C.3       1 <0>        -0.1678
      2 C2          0.3821    1.9366   -3.0957 C.3       1 <0>         0.1150
      3 N1         -0.5952    1.1405   -2.3490 N.am      1 <0>        -0.7338
      4 C3         -1.5605    1.7540   -1.6362 C.2       1 <0>         0.5678
      5 O1         -1.6173    2.9683   -1.6087 O.2       1 <0>        -0.5497
      6 C4         -2.5481    0.9524   -0.8893 C.ar      1 <0>        -0.1760
      7 C5         -2.5602   -0.4391   -1.0110 C.ar      1 <0>        -0.0663
      8 C6         -3.4825   -1.1827   -0.3073 C.ar      1 <0>        -0.1467
      9 C7         -4.4060   -0.5565    0.5144 C.ar      1 <0>        -0.0703
     10 C8         -4.4099    0.8178    0.6408 C.ar      1 <0>        -0.1383
     11 C9         -3.4847    1.5833   -0.0569 C.ar      1 <0>         0.2172
     12 N2         -3.4870    2.9695    0.0687 N.am      1 <0>        -0.6692
     13 C10        -4.6487    3.6276    0.2527 C.2       1 <0>         0.5634
     14 O2         -5.6850    3.0058    0.3875 O.2       1 <0>        -0.5250
     15 C11        -4.6632    5.1018    0.2906 C.ar      1 <0>        -0.1466
     16 C12        -3.4717    5.8181    0.1415 C.ar      1 <0>        -0.0536
     17 C13        -3.4892    7.1937    0.1725 C.ar      1 <0>        -0.1629
     18 C14        -4.6902    7.8720    0.3622 C.ar      1 <0>         0.1792
     19 C15        -5.8775    7.1615    0.5166 C.ar      1 <0>        -0.1393
     20 C16        -5.8675    5.7860    0.4813 C.ar      1 <0>        -0.0374
     21 N3         -4.7038    9.2619    0.3979 N.pl3     1 <0>        -1.0702
     22 S1         -3.5874   10.0777    1.3092 S.o2      1 <0>         2.6918
     23 O3         -2.3130    9.5663    0.9438 O.2       1 <0>        -0.9474
     24 O4         -3.9118   11.4576    1.2092 O.2       1 <0>        -0.9482
     25 C17        -3.8512    9.6188    2.9898 C.ar      1 <0>        -0.6775
     26 C18        -4.7999   10.2810    3.7463 C.ar      1 <0>        -0.0184
     27 C19        -5.0105    9.9175    5.0633 C.ar      1 <0>        -0.1400
     28 C20        -4.2648    8.8991    5.6269 C.ar      1 <0>        -0.0594
     29 C21        -3.3121    8.2407    4.8720 C.ar      1 <0>        -0.1390
     30 C22        -3.1054    8.6005    3.5534 C.ar      1 <0>        -0.0171
     31 H1          2.0894    1.6007   -4.3783 H         1 <0>         0.0761
     32 H2          0.7981    0.3593   -4.5141 H         1 <0>         0.0629
     33 H3          1.8793    0.3774   -3.0797 H         1 <0>         0.0632
     34 H4          0.9396    2.5802   -2.3993 H         1 <0>         0.0689
     35 H5         -0.1416    2.5621   -3.8336 H         1 <0>         0.0685
     36 H6         -0.5411    0.0420   -2.3702 H         1 <0>         0.4211
     37 H7         -1.8451   -0.9319   -1.6530 H         1 <0>         0.1281
     38 H8         -3.4884   -2.2587   -0.3999 H         1 <0>         0.1303
     39 H9         -5.1275   -1.1475    1.0590 H         1 <0>         0.1313
     40 H10        -5.1333    1.2985    1.2827 H         1 <0>         0.1487
     41 H11        -2.5407    3.5279    0.0178 H         1 <0>         0.4465
     42 H12        -2.5392    5.2925   -0.0019 H         1 <0>         0.1362
     43 H13        -2.5698    7.7477    0.0533 H         1 <0>         0.1629
     44 H14        -6.8074    7.6906    0.6640 H         1 <0>         0.1375
     45 H15        -6.7889    5.2354    0.6005 H         1 <0>         0.1423
     46 H16        -5.4561    9.8196   -0.1792 H         1 <0>         0.4582
     47 H17        -5.3795   11.0796    3.3073 H         1 <0>         0.1393
     48 H18        -5.7551   10.4316    5.6529 H         1 <0>         0.1347
     49 H19        -4.4267    8.6176    6.6569 H         1 <0>         0.1327
     50 H20        -2.7294    7.4451    5.3124 H         1 <0>         0.1344
     51 H21        -2.3611    8.0861    2.9637 H         1 <0>         0.1414
@<TRIPOS>BOND
     1    1    2 1
     2    1   31 1
     3    1   32 1
     4    1   33 1
     5    2    3 1
     6    2   34 1
     7    2   35 1
     8    3    4 am
     9    3   36 1
    10    4    5 2
    11    4    6 1
    12    6   11 ar
    13    6    7 ar
    14    7    8 ar
    15    7   37 1
    16    8    9 ar
    17    8   38 1
    18    9   10 ar
    19    9   39 1
    20   10   11 ar
    21   10   40 1
    22   11   12 1
    23   12   13 am
    24   12   41 1
    25   13   14 2
    26   13   15 1
    27   15   20 ar
    28   15   16 ar
    29   16   17 ar
    30   16   42 1
    31   17   18 ar
    32   17   43 1
    33   18   19 ar
    34   18   21 1
    35   19   20 ar
    36   19   44 1
    37   20   45 1
    38   21   22 1
    39   21   46 1
    40   22   23 2
    41   22   24 2
    42   22   25 1
    43   25   30 ar
    44   25   26 ar
    45   26   27 ar
    46   26   47 1
    47   27   28 ar
    48   27   48 1
    49   28   29 ar
    50   28   49 1
    51   29   30 ar
    52   29   50 1
    53   30   51 1
@<TRIPOS>MOLECULE
ZINC39481212
   55    57     0     0     0
SMALL
USER_CHARGES

@<TRIPOS>ATOM
      1 C1          0.7935    2.8414   -0.9176 C.3       1 <0>        -0.1484
      2 C2          0.7324    1.3513   -0.5760 C.3       1 <0>        -0.0836
      3 C3          1.2656    0.5481   -1.7342 C.ar      1 <0>        -0.0907
      4 C4          0.4076    0.1242   -2.7320 C.ar      1 <0>        -0.0808
      5 C5          0.8904   -0.6131   -3.7975 C.ar      1 <0>        -0.1677
      6 C6          2.2388   -0.9289   -3.8676 C.ar      1 <0>         0.1582
      7 C7          3.1044   -0.5009   -2.8613 C.ar      1 <0>         0.1553
      8 C8          2.6125    0.2421   -1.7989 C.ar      1 <0>        -0.0922
      9 N1          4.4670   -0.8168   -2.9259 N.pl3     1 <0>        -0.6705
     10 C9          5.4194    0.0820   -3.5954 C.3       1 <0>         0.1006
     11 C10         6.5873    0.3521   -2.6408 C.3       1 <0>         0.0505
     12 N2          7.1522   -0.9265   -2.1892 N.3       1 <0>        -0.7037
     13 C11         6.1688   -1.7020   -1.4213 C.3       1 <0>         0.2428
     14 H1          5.8173   -1.1091   -0.5769 H         1 <0>         0.0742
     15 C12         4.9847   -2.0533   -2.3206 C.3       1 <0>         0.1182
     16 O1          6.7780   -2.9020   -0.9407 O.3       1 <0>        -0.3829
     17 C13         7.6664   -2.7020    0.1606 C.3       1 <0>         0.0653
     18 C14         8.2573   -4.0465    0.5897 C.3       1 <0>        -0.1524
     19 N3          2.7298   -1.6758   -4.9454 N.pl3     1 <0>        -1.0471
     20 S1          2.0836   -1.4724   -6.4565 S.o2      1 <0>         2.6922
     21 O2          1.9901   -0.0710   -6.6729 O.2       1 <0>        -0.9422
     22 O3          2.8078   -2.3310   -7.3269 O.2       1 <0>        -0.9340
     23 C15         0.4324   -2.0850   -6.4038 C.ar      1 <0>        -0.7086
     24 C16        -0.6302   -1.2283   -6.6185 C.ar      1 <0>        -0.0106
     25 C17        -1.9259   -1.7083   -6.5768 C.ar      1 <0>        -0.1452
     26 C18        -2.1622   -3.0466   -6.3206 C.ar      1 <0>        -0.0441
     27 C19        -1.1034   -3.9071   -6.1057 C.ar      1 <0>        -0.1625
     28 C20         0.1983   -3.4289   -6.1523 C.ar      1 <0>         0.2087
     29 O4          1.2420   -4.2747   -5.9467 O.3       1 <0>        -0.4884
     30 H2          1.8270    3.1273   -1.1128 H         1 <0>         0.0557
     31 H3          0.1891    3.0361   -1.8036 H         1 <0>         0.0571
     32 H4          0.4078    3.4223   -0.0798 H         1 <0>         0.0587
     33 H5          1.3368    1.1566    0.3100 H         1 <0>         0.0717
     34 H6         -0.3011    1.0653   -0.3808 H         1 <0>         0.0734
     35 H7         -0.6428    0.3693   -2.6789 H         1 <0>         0.1297
     36 H8          0.2173   -0.9433   -4.5748 H         1 <0>         0.1310
     37 H9          3.2807    0.5787   -1.0200 H         1 <0>         0.1266
     38 H10         5.7913   -0.3903   -4.5046 H         1 <0>         0.0545
     39 H11         4.9244    1.0209   -3.8434 H         1 <0>         0.0814
     40 H12         7.3553    0.9263   -3.1590 H         1 <0>         0.0880
     41 H13         6.2299    0.9164   -1.7794 H         1 <0>         0.0765
     42 H14         7.5054   -1.4612   -2.9686 H         1 <0>         0.3472
     43 H15         4.2025   -2.5254   -1.7262 H         1 <0>         0.0822
     44 H16         5.3141   -2.7348   -3.1049 H         1 <0>         0.0608
     45 H17         8.4710   -2.0305   -0.1389 H         1 <0>         0.0601
     46 H18         7.1183   -2.2633    0.9944 H         1 <0>         0.0442
     47 H19         8.8053   -4.4852   -0.2441 H         1 <0>         0.0626
     48 H20         8.9349   -3.8940    1.4297 H         1 <0>         0.0711
     49 H21         7.4527   -4.7180    0.8892 H         1 <0>         0.0604
     50 H22         3.4484   -2.3124   -4.8069 H         1 <0>         0.4270
     51 H23        -0.4483   -0.1828   -6.8188 H         1 <0>         0.1504
     52 H24        -2.7552   -1.0369   -6.7443 H         1 <0>         0.1399
     53 H25        -3.1754   -3.4190   -6.2882 H         1 <0>         0.1389
     54 H26        -1.2884   -4.9522   -5.9056 H         1 <0>         0.1413
     55 H27         1.4989   -4.3641   -5.0187 H         1 <0>         0.3991
@<TRIPOS>BOND
     1    1    2 1
     2    1   30 1
     3    1   31 1
     4    1   32 1
     5    2    3 1
     6    2   33 1
     7    2   34 1
     8    3    8 ar
     9    3    4 ar
    10    4    5 ar
    11    4   35 1
    12    5    6 ar
    13    5   36 1
    14    6    7 ar
    15    6   19 1
    16    7    8 ar
    17    7    9 1
    18    8   37 1
    19    9   15 1
    20    9   10 1
    21   10   11 1
    22   10   38 1
    23   10   39 1
    24   11   12 1
    25   11   40 1
    26   11   41 1
    27   12   13 1
    28   12   42 1
    29   13   14 1
    30   13   15 1
    31   13   16 1
    32   15   43 1
    33   15   44 1
    34   16   17 1
    35   17   18 1
    36   17   45 1
    37   17   46 1
    38   18   47 1
    39   18   48 1
    40   18   49 1
    41   19   20 1
    42   19   50 1
    43   20   21 2
    44   20   22 2
    45   20   23 1
    46   23   28 ar
    47   23   24 ar
    48   24   25 ar
    49   24   51 1
    50   25   26 ar
    51   25   52 1
    52   26   27 ar
    53   26   53 1
    54   27   28 ar
    55   27   54 1
    56   28   29 1
    57   29   55 1
@<TRIPOS>MOLECULE
ZINC09243119
   55    58     0     0     0
SMALL
USER_CHARGES

@<TRIPOS>ATOM
      1 C1          0.9603    1.0270   -0.0363 C.3       1 <0>        -0.1528
      2 C2          0.8024   -0.4538   -0.3872 C.3       1 <0>         0.0548
      3 O1         -0.5392   -0.8665   -0.1191 O.3       1 <0>        -0.3092
      4 C3         -0.8490   -2.1641   -0.3782 C.ar      1 <0>         0.1407
      5 C4          0.1200   -3.0241   -0.8749 C.ar      1 <0>        -0.2003
      6 C5         -0.1973   -4.3426   -1.1370 C.ar      1 <0>        -0.0747
      7 C6         -1.4794   -4.8057   -0.9049 C.ar      1 <0>        -0.1309
      8 C7         -2.4468   -3.9508   -0.4105 C.ar      1 <0>        -0.0601
      9 C8         -2.1330   -2.6325   -0.1413 C.ar      1 <0>        -0.1385
     10 C9         -3.8432   -4.4588   -0.1591 C.3       1 <0>         0.2475
     11 H1         -4.4176   -3.7169    0.3956 H         1 <0>         0.1128
     12 C10        -4.5234   -4.7705   -1.4640 C.2       1 <0>        -0.1701
     13 C11        -4.9849   -4.2958   -2.6964 C.2       1 <0>         0.1175
     14 N1         -5.5228   -5.3158   -3.3357 N.2       1 <0>        -0.2243
     15 N2         -5.4466   -6.3871   -2.6293 N.pl3     1 <0>        -0.3315
     16 H2         -5.7779   -7.2576   -2.9002 H         1 <0>         0.4544
     17 C12        -4.8300   -6.1175   -1.4406 C.2       1 <0>        -0.0591
     18 C13        -4.3695   -6.6788   -0.1657 C.2       1 <0>         0.5999
     19 O2         -4.4906   -7.8431    0.1645 O.2       1 <0>        -0.5135
     20 N3         -3.7946   -5.7223    0.5879 N.am      1 <0>        -0.5925
     21 C14        -3.2186   -5.9090    1.9220 C.3       1 <0>         0.1431
     22 C15        -4.2972   -5.6718    2.9809 C.3       1 <0>        -0.1416
     23 C16        -3.6958   -5.8668    4.3741 C.3       1 <0>         0.0795
     24 O3         -4.7031   -5.6451    5.3631 O.3       1 <0>        -0.5735
     25 C17        -4.8877   -2.9004   -3.1926 C.ar      1 <0>        -0.0358
     26 C18        -4.4029   -1.8946   -2.3604 C.ar      1 <0>        -0.0703
     27 C19        -4.3144   -0.5974   -2.8268 C.ar      1 <0>        -0.0460
     28 C20        -4.7063   -0.2938   -4.1197 C.ar      1 <0>        -0.0499
     29 C21        -5.1891   -1.2852   -4.9526 C.ar      1 <0>        -0.1371
     30 C22        -5.2770   -2.5915   -4.4987 C.ar      1 <0>         0.1437
     31 O4         -5.7459   -3.5679   -5.3191 O.3       1 <0>        -0.4789
     32 C23        -4.6065    1.1241   -4.6205 C.3       1 <0>        -0.1232
     33 Cl1        -3.7105    0.6561   -1.7887 Cl        1 <0>        -0.0534
     34 H3          1.9836    1.3418   -0.2408 H         1 <0>         0.0788
     35 H4          0.2709    1.6186   -0.6386 H         1 <0>         0.0670
     36 H5          0.7388    1.1755    1.0206 H         1 <0>         0.0666
     37 H6          1.0239   -0.6024   -1.4441 H         1 <0>         0.0623
     38 H7          1.4918   -1.0455    0.2152 H         1 <0>         0.0618
     39 H8          1.1214   -2.6627   -1.0567 H         1 <0>         0.1293
     40 H9          0.5565   -5.0123   -1.5240 H         1 <0>         0.1267
     41 H10        -1.7255   -5.8370   -1.1105 H         1 <0>         0.1176
     42 H11        -2.8879   -1.9661    0.2492 H         1 <0>         0.1337
     43 H12        -2.8368   -6.9258    2.0138 H         1 <0>         0.0936
     44 H13        -2.4036   -5.2002    2.0683 H         1 <0>         0.0924
     45 H14        -4.6791   -4.6550    2.8890 H         1 <0>         0.0762
     46 H15        -5.1122   -6.3806    2.8345 H         1 <0>         0.0773
     47 H16        -3.3139   -6.8835    4.4659 H         1 <0>         0.0494
     48 H17        -2.8807   -5.1579    4.5204 H         1 <0>         0.0492
     49 H18        -4.3919   -5.7520    6.2724 H         1 <0>         0.3832
     50 H19        -4.0968   -2.1284   -1.3514 H         1 <0>         0.1405
     51 H20        -5.4937   -1.0425   -5.9599 H         1 <0>         0.1425
     52 H21        -6.7037   -3.6929   -5.2743 H         1 <0>         0.3940
     53 H22        -3.6278    1.2811   -5.0740 H         1 <0>         0.0797
     54 H23        -5.3840    1.3027   -5.3632 H         1 <0>         0.0742
     55 H24        -4.7353    1.8139   -3.7865 H         1 <0>         0.0774
@<TRIPOS>BOND
     1    1    2 1
     2    1   34 1
     3    1   35 1
     4    1   36 1
     5    2    3 1
     6    2   37 1
     7    2   38 1
     8    3    4 1
     9    4    9 ar
    10    4    5 ar
    11    5    6 ar
    12    5   39 1
    13    6    7 ar
    14    6   40 1
    15    7    8 ar
    16    7   41 1
    17    8    9 ar
    18    8   10 1
    19    9   42 1
    20   10   11 1
    21   10   20 1
    22   10   12 1
    23   12   17 2
    24   12   13 1
    25   13   14 2
    26   13   25 1
    27   14   15 1
    28   15   16 1
    29   15   17 1
    30   17   18 1
    31   18   19 2
    32   18   20 am
    33   20   21 1
    34   21   22 1
    35   21   43 1
    36   21   44 1
    37   22   23 1
    38   22   45 1
    39   22   46 1
    40   23   24 1
    41   23   47 1
    42   23   48 1
    43   24   49 1
    44   25   30 ar
    45   25   26 ar
    46   26   27 ar
    47   26   50 1
    48   27   28 ar
    49   27   33 1
    50   28   29 ar
    51   28   32 1
    52   29   30 ar
    53   29   51 1
    54   30   31 1
    55   31   52 1
    56   32   53 1
    57   32   54 1
    58   32   55 1
@<TRIPOS>MOLECULE
ZINC15462547
   42    44     0     0     0
SMALL
USER_CHARGES
(2S)-2-[N'-(4-chlorobenzoyl)hydrazino]-N-cyclopropyl-2-phenyl-acetamide
@<TRIPOS>ATOM
      1 C1          4.9735    6.6950   -4.0380 C.ar      1 <0>        -0.1087
      2 C2          5.8549    6.2077   -3.0912 C.ar      1 <0>        -0.1127
      3 C3          5.4384    6.0321   -1.7848 C.ar      1 <0>        -0.1092
      4 C4          4.1407    6.3446   -1.4251 C.ar      1 <0>        -0.1322
      5 C5          3.2580    6.8274   -2.3730 C.ar      1 <0>        -0.1085
      6 C6          3.6757    7.0071   -3.6785 C.ar      1 <0>        -0.1080
      7 C7          3.6867    6.1532   -0.0009 C.3       1 <0>         0.0957
      8 H1          4.3559    5.4559    0.5031 H         1 <0>         0.1217
      9 C8          3.7095    7.4786    0.7160 C.2       1 <0>         0.5347
     10 O1          2.6879    7.9299    1.1887 O.2       1 <0>        -0.5008
     11 N1          4.8651    8.1623    0.8317 N.am      1 <0>        -0.6991
     12 C9          4.8872    9.4507    1.5287 C.3       1 <0>         0.0797
     13 C10         5.6804   10.5892    0.8839 C.3       1 <0>        -0.1917
     14 C11         6.2153    9.8997    2.1415 C.3       1 <0>        -0.1874
     15 N2          2.3201    5.6144    0.0091 N.3       1 <0>        -0.4098
     16 N3          2.3323    4.2485    0.0021 N.am      1 <0>        -0.5731
     17 C12         1.1713    3.5642    0.0095 C.2       1 <0>         0.5626
     18 O2          0.1132    4.1625    0.0224 O.2       1 <0>        -0.5135
     19 C13         1.1845    2.0864    0.0020 C.ar      1 <0>        -0.1243
     20 C14        -0.0166    1.3747    0.0096 C.ar      1 <0>        -0.0435
     21 C15         0.0021   -0.0041    0.0020 C.ar      1 <0>        -0.1149
     22 C16         1.2093   -0.6830   -0.0127 C.ar      1 <0>        -0.0109
     23 C17         2.4042    0.0176   -0.0203 C.ar      1 <0>        -0.1162
     24 C18         2.3982    1.3965   -0.0129 C.ar      1 <0>        -0.0761
     25 Cl1         1.2248   -2.4189   -0.0210 Cl        1 <0>        -0.0577
     26 H2          5.2988    6.8321   -5.0587 H         1 <0>         0.1272
     27 H3          6.8688    5.9638   -3.3721 H         1 <0>         0.1283
     28 H4          6.1269    5.6510   -1.0451 H         1 <0>         0.1267
     29 H5          2.2429    7.0674   -2.0930 H         1 <0>         0.1254
     30 H6          2.9872    7.3881   -4.4182 H         1 <0>         0.1286
     31 H7          5.6822    7.8014    0.4536 H         1 <0>         0.4005
     32 H8          3.9730    9.7129    2.0612 H         1 <0>         0.1402
     33 H9          6.1858   10.3795   -0.0589 H         1 <0>         0.0968
     34 H10         5.2882   11.6004    0.9926 H         1 <0>         0.1040
     35 H11         6.1748   10.4576    3.0771 H         1 <0>         0.1057
     36 H12         7.0725    9.2363    2.0265 H         1 <0>         0.0975
     37 H13         1.7835    5.9752   -0.7655 H         1 <0>         0.3557
     38 H14         3.1767    3.7711   -0.0082 H         1 <0>         0.3994
     39 H15        -0.9585    1.9031    0.0169 H         1 <0>         0.1492
     40 H16        -0.9264   -0.5557    0.0079 H         1 <0>         0.1442
     41 H17         3.3424   -0.5173   -0.0318 H         1 <0>         0.1419
     42 H18         3.3305    1.9417   -0.0181 H         1 <0>         0.1329
@<TRIPOS>BOND
     1    1    6 ar
     2    1    2 ar
     3    1   26 1
     4    2    3 ar
     5    2   27 1
     6    3    4 ar
     7    3   28 1
     8    4    5 ar
     9    4    7 1
    10    5    6 ar
    11    5   29 1
    12    6   30 1
    13    7    8 1
    14    7    9 1
    15    7   15 1
    16    9   10 2
    17    9   11 am
    18   11   12 1
    19   11   31 1
    20   12   14 1
    21   12   13 1
    22   12   32 1
    23   13   14 1
    24   13   33 1
    25   13   34 1
    26   14   35 1
    27   14   36 1
    28   15   16 1
    29   15   37 1
    30   16   17 am
    31   16   38 1
    32   17   18 2
    33   17   19 1
    34   19   24 ar
    35   19   20 ar
    36   20   21 ar
    37   20   39 1
    38   21   22 ar
    39   21   40 1
    40   22   23 ar
    41   22   25 1
    42   23   24 ar
    43   23   41 1
    44   24   42 1
@<TRIPOS>MOLECULE
ZINC45095572
   37    38     0     0     0
SMALL
USER_CHARGES

@<TRIPOS>ATOM
      1 C1         -0.0184    1.5028    0.0103 C.3       1 <0>        -0.0842
      2 C2          0.0021   -0.0041    0.0020 C.2       1 <0>         0.1043
      3 C3          0.0053   -0.6830   -1.1794 C.2       1 <0>        -0.2698
      4 S1          0.0320   -2.3711   -0.5899 S.3       1 <0>         0.1139
      5 C4          0.0359   -1.9943    1.1577 C.2       1 <0>         0.3148
      6 N1          0.0225   -0.6741    1.1391 N.2       1 <0>        -0.5186
      7 N2          0.0533   -2.8600    2.2456 N.am      1 <0>        -0.6033
      8 C5          0.0708   -4.1928    2.0460 C.2       1 <0>         0.5539
      9 O1          0.0715   -4.6387    0.9132 O.2       1 <0>        -0.5067
     10 C6          0.0891   -5.1036    3.1905 C.2       1 <0>        -0.2211
     11 C7          0.1067   -6.4379    2.9907 C.2       1 <0>         0.0115
     12 C8          0.1251   -7.3537    4.1416 C.ar      1 <0>        -0.0987
     13 C9          0.1186   -6.8447    5.4447 C.ar      1 <0>        -0.0666
     14 C10         0.1360   -7.7080    6.5184 C.ar      1 <0>        -0.1565
     15 C11         0.1603   -9.0789    6.3095 C.ar      1 <0>         0.1180
     16 C12         0.1668   -9.5900    5.0203 C.ar      1 <0>        -0.1568
     17 C13         0.1434   -8.7377    3.9379 C.ar      1 <0>        -0.0580
     18 F1          0.1781   -9.9200    7.3666 F         1 <0>        -0.1334
     19 S2         -0.0124   -0.0680   -2.8305 S.3       1 <0>         0.0868
     20 C14         0.0033   -1.5641   -3.8562 C.3       1 <0>        -0.1740
     21 C15        -0.0101   -1.1752   -5.3121 C.2       1 <0>         0.5409
     22 O2         -0.0285   -0.0040   -5.6268 O.2       1 <0>        -0.5213
     23 N3         -0.0017   -2.1288   -6.2645 N.am      1 <0>        -0.8463
     24 H1          1.0042    1.8801    0.0026 H         1 <0>         0.0789
     25 H2         -0.5455    1.8639   -0.8728 H         1 <0>         0.0772
     26 H3         -0.5286    1.8543    0.9071 H         1 <0>         0.0777
     27 H4          0.0528   -2.5048    3.1482 H         1 <0>         0.4293
     28 H5          0.0886   -4.7080    4.1954 H         1 <0>         0.1404
     29 H6          0.1073   -6.8334    1.9857 H         1 <0>         0.1431
     30 H7          0.1004   -5.7774    5.6087 H         1 <0>         0.1400
     31 H8          0.1310   -7.3164    7.5249 H         1 <0>         0.1422
     32 H9          0.1861  -10.6585    4.8644 H         1 <0>         0.1426
     33 H10         0.1439   -9.1371    2.9344 H         1 <0>         0.1418
     34 H11         0.9028   -2.1416   -3.6427 H         1 <0>         0.1215
     35 H12        -0.8770   -2.1669   -3.6330 H         1 <0>         0.1214
     36 H13         0.0130   -3.0654   -6.0128 H         1 <0>         0.4052
     37 H14        -0.0104   -1.8784   -7.2016 H         1 <0>         0.4101
@<TRIPOS>BOND
     1    1    2 1
     2    1   24 1
     3    1   25 1
     4    1   26 1
     5    2    6 1
     6    2    3 2
     7    3    4 1
     8    3   19 1
     9    4    5 1
    10    5    6 2
    11    5    7 1
    12    7    8 am
    13    7   27 1
    14    8    9 2
    15    8   10 1
    16   10   11 2
    17   10   28 1
    18   11   12 1
    19   11   29 1
    20   12   17 ar
    21   12   13 ar
    22   13   14 ar
    23   13   30 1
    24   14   15 ar
    25   14   31 1
    26   15   16 ar
    27   15   18 1
    28   16   17 ar
    29   16   32 1
    30   17   33 1
    31   19   20 1
    32   20   21 1
    33   20   34 1
    34   20   35 1
    35   21   22 2
    36   21   23 am
    37   23   36 1
    38   23   37 1
@<TRIPOS>MOLECULE
ZINC53477284
   45    47     0     0     0
SMALL
USER_CHARGES

@<TRIPOS>ATOM
      1 C1         -0.0167    1.3768    0.0096 C.ar      1 <0>        -0.1138
      2 C2          1.1719    2.0830    0.0021 C.ar      1 <0>        -0.1238
      3 C3          2.3755    1.4061   -0.0130 C.ar      1 <0>        -0.0865
      4 C4          2.3964    0.0213   -0.0206 C.ar      1 <0>        -0.1116
      5 C5          1.2082   -0.6847   -0.0132 C.ar      1 <0>        -0.0939
      6 C6          0.0021   -0.0041    0.0020 C.ar      1 <0>        -0.1106
      7 C7          1.4958   -2.1708   -0.0245 C.3       1 <0>        -0.0811
      8 C8          2.9655   -2.2943   -0.4796 C.3       1 <0>        -0.1246
      9 C9          3.5639   -0.9420   -0.0373 C.3       1 <0>         0.1850
     10 H1          3.9975   -1.0281    0.9590 H         1 <0>         0.1041
     11 N1          4.5770   -0.4963   -0.9970 N.am      1 <0>        -0.7190
     12 C10         5.5242    0.3840   -0.6170 C.2       1 <0>         0.5490
     13 O1          5.5378    0.8087    0.5237 O.2       1 <0>        -0.5426
     14 C11         6.5356    0.8291   -1.5751 C.2       1 <0>        -0.2256
     15 C12         7.4842    1.7107   -1.1944 C.2       1 <0>        -0.0049
     16 C13         8.5008    2.1580   -2.1574 C.ar      1 <0>        -0.1175
     17 C14         8.4839    1.6755   -3.4713 C.ar      1 <0>        -0.0567
     18 C15         9.4383    2.0975   -4.3692 C.ar      1 <0>        -0.1487
     19 C16        10.4176    3.0012   -3.9731 C.ar      1 <0>         0.1429
     20 C17        10.4391    3.4830   -2.6692 C.ar      1 <0>        -0.2141
     21 C18         9.4856    3.0721   -1.7652 C.ar      1 <0>        -0.0493
     22 O2         11.3563    3.4142   -4.8623 O.3       1 <0>        -0.2868
     23 C19        12.3335    4.3435   -4.3894 C.3       1 <0>         0.0374
     24 C20        13.2847    4.6846   -5.5074 C.2       1 <0>         0.5192
     25 O3         13.1402    4.1813   -6.6013 O.2       1 <0>        -0.5162
     26 N2         14.2961    5.5488   -5.2915 N.am      1 <0>        -0.8496
     27 H2         -0.9588    1.9046    0.0259 H         1 <0>         0.1244
     28 H3          1.1591    3.1629    0.0076 H         1 <0>         0.1234
     29 H4          3.3036    1.9584   -0.0192 H         1 <0>         0.1189
     30 H5         -0.9268   -0.5550    0.0083 H         1 <0>         0.1210
     31 H6          1.3732   -2.5874    0.9752 H         1 <0>         0.0854
     32 H7          0.8376   -2.6780   -0.7299 H         1 <0>         0.0805
     33 H8          3.4603   -3.1218    0.0288 H         1 <0>         0.0869
     34 H9          3.0276   -2.4101   -1.5616 H         1 <0>         0.0806
     35 H10         4.5662   -0.8347   -1.9060 H         1 <0>         0.4024
     36 H11         6.5236    0.4523   -2.5871 H         1 <0>         0.1290
     37 H12         7.4963    2.0874   -0.1824 H         1 <0>         0.1360
     38 H13         7.7238    0.9732   -3.7799 H         1 <0>         0.1366
     39 H14         9.4264    1.7256   -5.3831 H         1 <0>         0.1381
     40 H15        11.2022    4.1846   -2.3663 H         1 <0>         0.1327
     41 H16         9.5000    3.4510   -0.7540 H         1 <0>         0.1335
     42 H17        11.8360    5.2506   -4.0462 H         1 <0>         0.0974
     43 H18        12.8882    3.8986   -3.5633 H         1 <0>         0.0975
     44 H19        14.4118    5.9513   -4.4165 H         1 <0>         0.4040
     45 H20        14.9085    5.7683   -6.0111 H         1 <0>         0.4109
@<TRIPOS>BOND
     1    1    6 ar
     2    1    2 ar
     3    1   27 1
     4    2    3 ar
     5    2   28 1
     6    3    4 ar
     7    3   29 1
     8    4    9 1
     9    4    5 ar
    10    5    6 ar
    11    5    7 1
    12    6   30 1
    13    7    8 1
    14    7   31 1
    15    7   32 1
    16    8    9 1
    17    8   33 1
    18    8   34 1
    19    9   10 1
    20    9   11 1
    21   11   12 am
    22   11   35 1
    23   12   13 2
    24   12   14 1
    25   14   15 2
    26   14   36 1
    27   15   16 1
    28   15   37 1
    29   16   21 ar
    30   16   17 ar
    31   17   18 ar
    32   17   38 1
    33   18   19 ar
    34   18   39 1
    35   19   20 ar
    36   19   22 1
    37   20   21 ar
    38   20   40 1
    39   21   41 1
    40   22   23 1
    41   23   24 1
    42   23   42 1
    43   23   43 1
    44   24   25 2
    45   24   26 am
    46   26   44 1
    47   26   45 1
@<TRIPOS>MOLECULE
ZINC63837731
   43    45     0     0     0
SMALL
USER_CHARGES

@<TRIPOS>ATOM
      1 C1         -0.0167    1.3775    0.0096 C.ar      1 <0>        -0.0971
      2 C2          1.1709    2.0856    0.0021 C.ar      1 <0>        -0.1182
      3 C3          2.3781    1.4125   -0.0130 C.ar      1 <0>        -0.0307
      4 C4          2.3993    0.0305   -0.0211 C.ar      1 <0>        -0.0941
      5 C5          1.2109   -0.6795   -0.0135 C.ar      1 <0>         0.0929
      6 C6          0.0021   -0.0041    0.0020 C.ar      1 <0>        -0.1498
      7 F1          1.2304   -2.0304   -0.0218 F         1 <0>        -0.1423
      8 C7          3.6716    2.1857   -0.0212 C.3       1 <0>        -0.0710
      9 C8          4.9644    1.3976   -0.2412 C.3       1 <0>        -0.1427
     10 C9          4.6372    1.9595    1.1438 C.3       1 <0>        -0.1796
     11 C10         4.2221    0.9805    2.2116 C.2       1 <0>         0.5426
     12 O1          3.1571    0.4065    2.1271 O.2       1 <0>        -0.4983
     13 N1          5.0344    0.7428    3.2605 N.am      1 <0>        -0.5464
     14 N2          4.6484   -0.1673    4.2532 N.pl3     1 <0>        -0.4705
     15 C11         5.4607   -0.4050    5.3022 C.2       1 <0>         0.5608
     16 S1          4.9891   -1.5171    6.5153 S.2       1 <0>        -0.5945
     17 N3          6.6442    0.2329    5.3961 N.pl3     1 <0>        -0.6768
     18 C12         7.5271   -0.0254    6.5362 C.3       1 <0>         0.1137
     19 C13         8.7952    0.8199    6.4011 C.3       1 <0>         0.0644
     20 C14         9.7815    0.4697    7.5359 C.3       1 <0>        -0.1464
     21 C15        10.3651    1.8605    7.9063 C.3       1 <0>        -0.1562
     22 C16         9.1328    2.7692    7.6686 C.3       1 <0>         0.0491
     23 O2          8.4687    2.2091    6.5247 O.3       1 <0>        -0.3803
     24 H1         -0.9592    1.9045    0.0259 H         1 <0>         0.1312
     25 H2          1.1553    3.1655    0.0076 H         1 <0>         0.1263
     26 H3          3.3426   -0.4952   -0.0336 H         1 <0>         0.1237
     27 H4         -0.9257   -0.5570    0.0082 H         1 <0>         0.1322
     28 H5          3.6163    3.1900   -0.4414 H         1 <0>         0.1335
     29 H6          4.8793    0.3198   -0.3800 H         1 <0>         0.1075
     30 H7          5.7599    1.8832   -0.8063 H         1 <0>         0.1196
     31 H8          5.2176    2.8148    1.4898 H         1 <0>         0.1381
     32 H9          5.8862    1.2019    3.3281 H         1 <0>         0.4196
     33 H10         3.7966   -0.6264    4.1857 H         1 <0>         0.4588
     34 H11         6.9114    0.8631    4.7087 H         1 <0>         0.3945
     35 H12         7.0127    0.2366    7.4608 H         1 <0>         0.0960
     36 H13         7.7950   -1.0818    6.5563 H         1 <0>         0.1018
     37 H14         9.2617    0.6344    5.4335 H         1 <0>         0.0884
     38 H15         9.2566    0.0308    8.3844 H         1 <0>         0.0877
     39 H16        10.5656   -0.1967    7.1766 H         1 <0>         0.0901
     40 H17        10.6792    1.8895    8.9497 H         1 <0>         0.0887
     41 H18        11.1866    2.1312    7.2430 H         1 <0>         0.0807
     42 H19         8.4739    2.7479    8.5367 H         1 <0>         0.0647
     43 H20         9.4507    3.7906    7.4591 H         1 <0>         0.0886
@<TRIPOS>BOND
     1    1    6 ar
     2    1    2 ar
     3    1   24 1
     4    2    3 ar
     5    2   25 1
     6    3    4 ar
     7    3    8 1
     8    4    5 ar
     9    4   26 1
    10    5    6 ar
    11    5    7 1
    12    6   27 1
    13    8   10 1
    14    8    9 1
    15    8   28 1
    16    9   10 1
    17    9   29 1
    18    9   30 1
    19   10   11 1
    20   10   31 1
    21   11   12 2
    22   11   13 am
    23   13   14 1
    24   13   32 1
    25   14   15 1
    26   14   33 1
    27   15   16 2
    28   15   17 1
    29   17   18 1
    30   17   34 1
    31   18   19 1
    32   18   35 1
    33   18   36 1
    34   19   23 1
    35   19   20 1
    36   19   37 1
    37   20   21 1
    38   20   38 1
    39   20   39 1
    40   21   22 1
    41   21   40 1
    42   21   41 1
    43   22   23 1
    44   22   42 1
    45   22   43 1
@<TRIPOS>MOLECULE
ZINC67196426
   39    40     0     0     0
SMALL
USER_CHARGES

@<TRIPOS>ATOM
      1 C1         -2.9937    3.8027   -2.4934 C.1       1 <0>        -0.1654
      2 C2         -2.1235    3.5111   -1.7613 C.1       1 <0>        -0.1526
      3 C3         -1.0620    3.1553   -0.8684 C.ar      1 <0>         0.0225
      4 C4         -1.2170    2.0826    0.0113 C.ar      1 <0>        -0.0882
      5 C5         -0.1925    1.7414    0.8705 C.ar      1 <0>        -0.1098
      6 C6          0.9890    2.4591    0.8643 C.ar      1 <0>        -0.1122
      7 C7          1.1527    3.5289   -0.0073 C.ar      1 <0>         0.1232
      8 C8          0.1315    3.8756   -0.8788 C.ar      1 <0>        -0.0506
      9 N1          2.3501    4.2525   -0.0095 N.pl3     1 <0>        -0.6308
     10 C9          2.3250    5.5967   -0.1038 C.2       1 <0>         0.5517
     11 S1          0.8291    6.4288   -0.0775 S.2       1 <0>        -0.5567
     12 N2          3.4775    6.2859   -0.2186 N.pl3     1 <0>        -0.4611
     13 N3          4.7017    5.6049   -0.2401 N.am      1 <0>        -0.5467
     14 C10         5.8543    6.2940   -0.3550 C.2       1 <0>         0.5566
     15 O1          5.8316    7.5077   -0.4400 O.2       1 <0>        -0.5175
     16 C11         7.1344    5.5819   -0.3774 C.2       1 <0>        -0.2029
     17 C12         8.2878    6.2716   -0.4924 C.2       1 <0>        -0.0042
     18 C13         9.5726    5.5569   -0.5149 C.ar      1 <0>        -0.0379
     19 C14         9.6042    4.1637   -0.4235 C.ar      1 <0>        -0.0974
     20 C15        10.8129    3.4987   -0.4457 C.ar      1 <0>        -0.0918
     21 C16        12.0005    4.2033   -0.5578 C.ar      1 <0>        -0.1013
     22 C17        11.9920    5.5808   -0.6495 C.ar      1 <0>        -0.0709
     23 C18        10.7821    6.2731   -0.6350 C.ar      1 <0>         0.0021
     24 C19        10.7673    7.7015   -0.7353 C.1       1 <0>         0.2397
     25 N4         10.7556    8.8346   -0.8148 N.1       1 <0>        -0.3928
     26 H1         -3.7720    4.0636   -3.1482 H         1 <0>         0.2250
     27 H2         -2.1388    1.5199    0.0196 H         1 <0>         0.1313
     28 H3         -0.3142    0.9111    1.5504 H         1 <0>         0.1359
     29 H4          1.7872    2.1877    1.5392 H         1 <0>         0.1290
     30 H5          0.2586    4.7037   -1.5603 H         1 <0>         0.1474
     31 H6          3.1984    3.7867    0.0567 H         1 <0>         0.4018
     32 H7          3.4595    7.2533   -0.2864 H         1 <0>         0.4622
     33 H8          4.7198    4.6374   -0.1723 H         1 <0>         0.4220
     34 H9          7.1546    4.5048   -0.3019 H         1 <0>         0.1434
     35 H10         8.2676    7.3487   -0.5679 H         1 <0>         0.1391
     36 H11         8.6830    3.6070   -0.3351 H         1 <0>         0.1393
     37 H12        10.8334    2.4213   -0.3747 H         1 <0>         0.1381
     38 H13        12.9400    3.6709   -0.5733 H         1 <0>         0.1400
     39 H14        12.9226    6.1219   -0.7363 H         1 <0>         0.1404
@<TRIPOS>BOND
     1    1    2 3
     2    1   26 1
     3    2    3 1
     4    3    8 ar
     5    3    4 ar
     6    4    5 ar
     7    4   27 1
     8    5    6 ar
     9    5   28 1
    10    6    7 ar
    11    6   29 1
    12    7    8 ar
    13    7    9 1
    14    8   30 1
    15    9   10 1
    16    9   31 1
    17   10   11 2
    18   10   12 1
    19   12   13 1
    20   12   32 1
    21   13   14 am
    22   13   33 1
    23   14   15 2
    24   14   16 1
    25   16   17 2
    26   16   34 1
    27   17   18 1
    28   17   35 1
    29   18   23 ar
    30   18   19 ar
    31   19   20 ar
    32   19   36 1
    33   20   21 ar
    34   20   37 1
    35   21   22 ar
    36   21   38 1
    37   22   23 ar
    38   22   39 1
    39   23   24 1
    40   24   25 3
@<TRIPOS>MOLECULE
ZINC13984566
   43    44     0     0     0
SMALL
USER_CHARGES
N-[2-[(N'E)-N'-[(4-hydroxyphenyl)methylene]hydrazino]-2-oxo-ethyl]cyclohexanecarboxamide
@<TRIPOS>ATOM
      1 C1         -3.6711   -2.0931    0.0316 C.ar      1 <0>        -0.0598
      2 C2         -4.8526   -2.8025    0.0337 C.ar      1 <0>        -0.1509
      3 C3         -4.8313   -4.1912    0.0256 C.ar      1 <0>         0.1254
      4 C4         -3.6204   -4.8714    0.0104 C.ar      1 <0>        -0.1507
      5 C5         -2.4340   -4.1704    0.0029 C.ar      1 <0>        -0.0701
      6 C6         -2.4505   -2.7731    0.0106 C.ar      1 <0>        -0.0710
      7 C7         -1.1840   -2.0187    0.0025 C.2       1 <0>         0.1187
      8 N1         -1.2016   -0.7210    0.0097 N.2       1 <0>        -0.2310
      9 N2          0.0021   -0.0041    0.0020 N.am      1 <0>        -0.5809
     10 C8         -0.0162    1.3436    0.0094 C.2       1 <0>         0.5286
     11 O1         -1.0749    1.9358    0.0177 O.2       1 <0>        -0.4978
     12 C9          1.2785    2.1147    0.0012 C.3       1 <0>         0.1062
     13 N3          0.9913    3.5513    0.0117 N.am      1 <0>        -0.7214
     14 C10         2.0037    4.4409    0.0068 C.2       1 <0>         0.5225
     15 O2          3.1525    4.0523   -0.0063 O.2       1 <0>        -0.5366
     16 C11         1.7083    5.9187    0.0175 C.3       1 <0>        -0.1036
     17 C12         0.8891    6.2840   -1.2220 C.3       1 <0>        -0.1122
     18 C13         0.5892    7.7843   -1.2111 C.3       1 <0>        -0.1185
     19 C14         1.9037    8.5673   -1.2194 C.3       1 <0>        -0.1234
     20 C15         2.7228    8.2019    0.0201 C.3       1 <0>        -0.1207
     21 C16         3.0227    6.7016    0.0092 C.3       1 <0>        -0.0995
     22 O3         -5.9984   -4.8864    0.0330 O.3       1 <0>        -0.4993
     23 H1         -3.6886   -1.0133    0.0425 H         1 <0>         0.1399
     24 H2         -5.7965   -2.2777    0.0459 H         1 <0>         0.1342
     25 H3         -3.6085   -5.9513    0.0049 H         1 <0>         0.1352
     26 H4         -1.4929   -4.7001   -0.0085 H         1 <0>         0.1346
     27 H5         -0.2415   -2.5459   -0.0093 H         1 <0>         0.1246
     28 H6          0.8486   -0.4776   -0.0086 H         1 <0>         0.3909
     29 H7          1.8621    1.8544    0.8843 H         1 <0>         0.1049
     30 H8          1.8451    1.8640   -0.8956 H         1 <0>         0.1050
     31 H9          0.0725    3.8621    0.0221 H         1 <0>         0.4137
     32 H10         1.1417    6.1694    0.9143 H         1 <0>         0.1002
     33 H11         1.4557    6.0333   -2.1188 H         1 <0>         0.0690
     34 H12        -0.0473    5.7262   -1.2161 H         1 <0>         0.0682
     35 H13         0.0226    8.0350   -0.3143 H         1 <0>         0.0654
     36 H14         0.0056    8.0446   -2.0941 H         1 <0>         0.0671
     37 H15         1.6900    9.6361   -1.2116 H         1 <0>         0.0639
     38 H16         2.4702    8.3165   -2.1162 H         1 <0>         0.0631
     39 H17         2.1562    8.4526    0.9169 H         1 <0>         0.0632
     40 H18         3.6592    8.7597    0.0142 H         1 <0>         0.0669
     41 H19         3.6063    6.4413    0.8923 H         1 <0>         0.0699
     42 H20         3.5893    6.4509   -0.8876 H         1 <0>         0.0705
     43 H21        -6.3279   -5.0924    0.9184 H         1 <0>         0.3952
@<TRIPOS>BOND
     1    1    6 ar
     2    1    2 ar
     3    1   23 1
     4    2    3 ar
     5    2   24 1
     6    3    4 ar
     7    3   22 1
     8    4    5 ar
     9    4   25 1
    10    5    6 ar
    11    5   26 1
    12    6    7 1
    13    7    8 2
    14    7   27 1
    15    8    9 1
    16    9   10 am
    17    9   28 1
    18   10   11 2
    19   10   12 1
    20   12   13 1
    21   12   29 1
    22   12   30 1
    23   13   14 am
    24   13   31 1
    25   14   15 2
    26   14   16 1
    27   16   21 1
    28   16   17 1
    29   16   32 1
    30   17   18 1
    31   17   33 1
    32   17   34 1
    33   18   19 1
    34   18   35 1
    35   18   36 1
    36   19   20 1
    37   19   37 1
    38   19   38 1
    39   20   21 1
    40   20   39 1
    41   20   40 1
    42   21   41 1
    43   21   42 1
    44   22   43 1
@<TRIPOS>MOLECULE
ZINC43412504
   41    41     0     0     0
SMALL
USER_CHARGES

@<TRIPOS>ATOM
      1 C1          0.8722   -0.3309   -1.3474 C.3       1 <0>        -0.1769
      2 C2          0.1929    0.1555   -0.0657 C.3       1 <0>         0.0444
      3 C3          0.1775    1.6853   -0.0456 C.3       1 <0>        -0.1734
      4 C4         -1.2434   -0.3697   -0.0188 C.3       1 <0>         0.1234
      5 N1         -1.2283   -1.8345   -0.0276 N.am      1 <0>        -0.7616
      6 C5         -2.3869   -2.5200   -0.0931 C.2       1 <0>         0.7052
      7 O1         -3.4445   -1.9227   -0.1449 O.2       1 <0>        -0.5727
      8 N2         -2.3730   -3.8677   -0.1011 N.am      1 <0>        -0.6438
      9 C6         -3.5706   -4.5760   -0.0781 C.ar      1 <0>         0.2076
     10 C7         -4.6839   -4.0848   -0.7443 C.ar      1 <0>        -0.1745
     11 C8         -5.8731   -4.7903   -0.7196 C.ar      1 <0>         0.1074
     12 C9         -5.9626   -5.9932   -0.0300 C.ar      1 <0>        -0.1793
     13 C10        -4.8685   -6.4951    0.6361 C.ar      1 <0>        -0.0385
     14 C11        -3.6566   -5.7953    0.6153 C.ar      1 <0>        -0.1713
     15 C12        -2.4823   -6.3295    1.3195 C.2       1 <0>         0.5304
     16 O2         -2.5310   -7.4371    1.8374 O.co2     1 <0>        -0.6680
     17 O3         -1.4559   -5.6667    1.3879 O.co2     1 <0>        -0.6990
     18 F1         -6.9544   -4.3067   -1.3693 F         1 <0>        -0.1435
     19 N3          0.9344   -0.3421    1.1007 N.4       1 <0>        -0.3838
     20 C13         2.2775    0.2528    1.1173 C.3       1 <0>        -0.0551
     21 C14         0.2197    0.0279    2.3297 C.3       1 <0>        -0.0583
     22 H1          1.8954    0.0432   -1.3807 H         1 <0>         0.0854
     23 H2          0.8832   -1.4208   -1.3617 H         1 <0>         0.0831
     24 H3          0.3220    0.0383   -2.2128 H         1 <0>         0.1086
     25 H4         -0.3728    2.0545   -0.9111 H         1 <0>         0.1080
     26 H5         -0.3065    2.0318    0.8675 H         1 <0>         0.0856
     27 H6          1.2007    2.0594   -0.0789 H         1 <0>         0.0888
     28 H7         -1.7299   -0.0167    0.8905 H         1 <0>         0.0915
     29 H8         -1.7915   -0.0068   -0.8884 H         1 <0>         0.1122
     30 H9         -0.3845   -2.3111    0.0138 H         1 <0>         0.3920
     31 H10        -1.5282   -4.3439   -0.1229 H         1 <0>         0.4239
     32 H11        -4.6219   -3.1504   -1.2824 H         1 <0>         0.1451
     33 H12        -6.8958   -6.5367   -0.0166 H         1 <0>         0.1327
     34 H13        -4.9436   -7.4302    1.1712 H         1 <0>         0.1434
     35 H14         2.1935    1.3379    1.1761 H         1 <0>         0.1253
     36 H15         2.8277   -0.1164    1.9828 H         1 <0>         0.1257
     37 H16         2.8078   -0.0218    0.2055 H         1 <0>         0.1243
     38 H17        -0.7413   -0.4856    2.3597 H         1 <0>         0.1283
     39 H18         0.8137   -0.2616    3.1966 H         1 <0>         0.1275
     40 H19         0.0565    1.1055    2.3446 H         1 <0>         0.1251
     41 H20         1.0121   -1.3466    1.0464 H         1 <0>         0.4249
@<TRIPOS>BOND
     1    1    2 1
     2    1   22 1
     3    1   23 1
     4    1   24 1
     5    2    3 1
     6    2    4 1
     7    2   19 1
     8    3   25 1
     9    3   26 1
    10    3   27 1
    11    4    5 1
    12    4   28 1
    13    4   29 1
    14    5    6 am
    15    5   30 1
    16    6    7 2
    17    6    8 am
    18    8    9 1
    19    8   31 1
    20    9   14 ar
    21    9   10 ar
    22   10   11 ar
    23   10   32 1
    24   11   12 ar
    25   11   18 1
    26   12   13 ar
    27   12   33 1
    28   13   14 ar
    29   13   34 1
    30   14   15 1
    31   15   16 2
    32   15   17 1
    33   19   20 1
    34   19   21 1
    35   19   41 1
    36   20   35 1
    37   20   36 1
    38   20   37 1
    39   21   38 1
    40   21   39 1
    41   21   40 1
@<TRIPOS>MOLECULE
ZINC62373168
   44    45     0     0     0
SMALL
USER_CHARGES

@<TRIPOS>ATOM
      1 C1         -1.5092   -2.3642   -2.2497 C.3       1 <0>        -0.1144
      2 C2         -0.7046   -1.8568   -1.0808 C.ar      1 <0>        -0.0622
      3 C3          0.0279   -0.6901   -1.2011 C.ar      1 <0>        -0.1382
      4 C4          0.7674   -0.2211   -0.1309 C.ar      1 <0>        -0.0623
      5 C5          0.7768   -0.9174    1.0619 C.ar      1 <0>        -0.1265
      6 C6          0.0422   -2.0893    1.1859 C.ar      1 <0>         0.1724
      7 C7         -0.7043   -2.5543    0.1112 C.ar      1 <0>        -0.1549
      8 N1          0.0499   -2.7973    2.3930 N.am      1 <0>        -0.6838
      9 C8          0.1482   -2.1345    3.5624 C.2       1 <0>         0.7096
     10 O1          0.1327   -0.9188    3.5753 O.2       1 <0>        -0.5697
     11 N2          0.2636   -2.8193    4.7175 N.am      1 <0>        -0.7258
     12 C9          0.3704   -2.0989    5.9886 C.3       1 <0>         0.1465
     13 C10        -1.0305   -1.7582    6.5010 C.3       1 <0>        -0.1623
     14 C11         1.0780   -2.9647    6.9988 C.2       1 <0>         0.5158
     15 O2          1.4559   -4.0743    6.6877 O.2       1 <0>        -0.5310
     16 N3          1.2909   -2.5060    8.2481 N.am      1 <0>        -0.7222
     17 C12         1.9788   -3.3477    9.2302 C.3       1 <0>         0.2043
     18 C13         2.0887   -2.6066   10.5378 C.2       1 <0>        -0.0460
     19 C14         1.1901   -2.6389   11.5382 C.2       1 <0>        -0.1782
     20 C15         1.6898   -1.8050   12.5647 C.2       1 <0>        -0.2185
     21 C16         2.8638   -1.3129   12.1302 C.2       1 <0>        -0.0237
     22 O3          3.1031   -1.8064   10.9042 O.3       1 <0>        -0.1711
     23 C17         1.5644    1.0507   -0.2663 C.3       1 <0>        -0.1144
     24 H1         -2.5126   -1.9403   -2.2115 H         1 <0>         0.0716
     25 H2         -1.0247   -2.0681   -3.1801 H         1 <0>         0.0681
     26 H3         -1.5720   -3.4514   -2.2028 H         1 <0>         0.0663
     27 H4          0.0228   -0.1443   -2.1330 H         1 <0>         0.1224
     28 H5          1.3551   -0.5510    1.8972 H         1 <0>         0.1349
     29 H6         -1.2802   -3.4631    0.2059 H         1 <0>         0.1239
     30 H7         -0.0154   -3.7651    2.3880 H         1 <0>         0.4085
     31 H8          0.2759   -3.7892    4.7072 H         1 <0>         0.4081
     32 H9          0.9360   -1.1792    5.8386 H         1 <0>         0.1194
     33 H10        -0.9510   -1.2222    7.4468 H         1 <0>         0.0732
     34 H11        -1.5423   -1.1320    5.7703 H         1 <0>         0.0787
     35 H12        -1.5960   -2.6779    6.6510 H         1 <0>         0.0655
     36 H13         0.9887   -1.6185    8.4970 H         1 <0>         0.4076
     37 H14         1.4133   -4.2673    9.3802 H         1 <0>         0.1028
     38 H15         2.9768   -3.5904    8.8652 H         1 <0>         0.0885
     39 H16         0.2643   -3.1948   11.5540 H         1 <0>         0.1519
     40 H17         1.2190   -1.6017   13.5152 H         1 <0>         0.1524
     41 H18         3.5069   -0.6385   12.6761 H         1 <0>         0.2068
     42 H19         0.9455    1.8998    0.0237 H         1 <0>         0.0724
     43 H20         2.4400    1.0015    0.3809 H         1 <0>         0.0664
     44 H21         1.8839    1.1707   -1.3015 H         1 <0>         0.0673
@<TRIPOS>BOND
     1    1    2 1
     2    1   24 1
     3    1   25 1
     4    1   26 1
     5    2    7 ar
     6    2    3 ar
     7    3    4 ar
     8    3   27 1
     9    4    5 ar
    10    4   23 1
    11    5    6 ar
    12    5   28 1
    13    6    7 ar
    14    6    8 1
    15    7   29 1
    16    8    9 am
    17    8   30 1
    18    9   10 2
    19    9   11 am
    20   11   12 1
    21   11   31 1
    22   12   13 1
    23   12   14 1
    24   12   32 1
    25   13   33 1
    26   13   34 1
    27   13   35 1
    28   14   15 2
    29   14   16 am
    30   16   17 1
    31   16   36 1
    32   17   18 1
    33   17   37 1
    34   17   38 1
    35   18   22 1
    36   18   19 2
    37   19   20 1
    38   19   39 1
    39   20   21 2
    40   20   40 1
    41   21   22 1
    42   21   41 1
    43   23   42 1
    44   23   43 1
    45   23   44 1
@<TRIPOS>MOLECULE
ZINC66136068
   45    46     0     0     0
SMALL
USER_CHARGES

@<TRIPOS>ATOM
      1 C1         -0.0187    1.5258    0.0104 C.3       1 <0>        -0.1708
      2 C2          0.0021   -0.0041    0.0020 C.3       1 <0>         0.1063
      3 N1         -1.3723   -0.5112    0.0124 N.am      1 <0>        -0.7179
      4 C3         -1.6006   -1.8394    0.0075 C.2       1 <0>         0.5818
      5 O1         -0.6658   -2.6169   -0.0056 O.2       1 <0>        -0.5267
      6 C4         -2.9849   -2.3502    0.0179 C.ar      1 <0>        -0.2865
      7 C5         -3.6688   -2.5980   -1.1797 C.ar      1 <0>         0.2627
      8 N2         -4.9057   -3.0545   -1.1276 N.ar      1 <0>        -0.5640
      9 C6         -5.5009   -3.2783    0.0369 C.ar      1 <0>         0.5849
     10 N3         -4.8876   -3.0564    1.1920 N.ar      1 <0>        -0.5554
     11 C7         -3.6477   -2.6054    1.2254 C.ar      1 <0>         0.2626
     12 C8         -2.9573   -2.3630    2.5428 C.3       1 <0>         0.1102
     13 O2         -3.2049   -1.0222    2.9707 O.3       1 <0>        -0.3168
     14 C9         -2.6492   -0.6384    4.1500 C.ar      1 <0>         0.0848
     15 C10        -3.3460   -0.8151    5.3366 C.ar      1 <0>        -0.0909
     16 C11        -2.7788   -0.4245    6.5341 C.ar      1 <0>        -0.1170
     17 C12        -1.5178    0.1425    6.5508 C.ar      1 <0>        -0.1111
     18 C13        -0.8215    0.3200    5.3695 C.ar      1 <0>        -0.1170
     19 C14        -1.3818   -0.0745    4.1700 C.ar      1 <0>        -0.0922
     20 C15        -0.6197    0.1137    2.8836 C.3       1 <0>        -0.1239
     21 C16        -4.7208   -1.4321    5.3191 C.3       1 <0>        -0.1152
     22 N4         -6.7951   -3.7553    0.0468 N.pl3     1 <0>        -0.8102
     23 C17        -3.0018   -2.3465   -2.5075 C.3       1 <0>        -0.1131
     24 H1          1.0039    1.9031    0.0027 H         1 <0>         0.0764
     25 H2         -0.5459    1.8868   -0.8726 H         1 <0>         0.0632
     26 H3         -0.5289    1.8773    0.9072 H         1 <0>         0.0665
     27 H4          0.5123   -0.3556   -0.8948 H         1 <0>         0.0706
     28 H5          0.5293   -0.3651    0.8851 H         1 <0>         0.0749
     29 H6         -2.1181    0.1091    0.0229 H         1 <0>         0.4046
     30 H7         -3.3419   -3.0591    3.2881 H         1 <0>         0.0826
     31 H8         -1.8844   -2.5141    2.4240 H         1 <0>         0.0783
     32 H9         -3.3208   -0.5619    7.4581 H         1 <0>         0.1271
     33 H10        -1.0762    0.4475    7.4880 H         1 <0>         0.1263
     34 H11         0.1632    0.7635    5.3851 H         1 <0>         0.1269
     35 H12        -0.8500    1.0934    2.4649 H         1 <0>         0.0770
     36 H13         0.4500    0.0455    3.0817 H         1 <0>         0.0672
     37 H14        -0.9080   -0.6617    2.1738 H         1 <0>         0.0760
     38 H15        -4.6349   -2.5139    5.4210 H         1 <0>         0.0700
     39 H16        -5.3080   -1.0346    6.1469 H         1 <0>         0.0682
     40 H17        -5.2139   -1.1940    4.3766 H         1 <0>         0.0750
     41 H18        -7.2569   -3.9222   -0.7898 H         1 <0>         0.4185
     42 H19        -7.2435   -3.9238    0.8903 H         1 <0>         0.4183
     43 H20        -2.4850   -3.2499   -2.8313 H         1 <0>         0.0955
     44 H21        -3.7550   -2.0740   -3.2467 H         1 <0>         0.0910
     45 H22        -2.2828   -1.5337   -2.4047 H         1 <0>         0.0813
@<TRIPOS>BOND
     1    1    2 1
     2    1   24 1
     3    1   25 1
     4    1   26 1
     5    2    3 1
     6    2   27 1
     7    2   28 1
     8    3    4 am
     9    3   29 1
    10    4    5 2
    11    4    6 1
    12    6   11 ar
    13    6    7 ar
    14    7    8 ar
    15    7   23 1
    16    8    9 ar
    17    9   10 ar
    18    9   22 1
    19   10   11 ar
    20   11   12 1
    21   12   13 1
    22   12   30 1
    23   12   31 1
    24   13   14 1
    25   14   19 ar
    26   14   15 ar
    27   15   16 ar
    28   15   21 1
    29   16   17 ar
    30   16   32 1
    31   17   18 ar
    32   17   33 1
    33   18   19 ar
    34   18   34 1
    35   19   20 1
    36   20   35 1
    37   20   36 1
    38   20   37 1
    39   21   38 1
    40   21   39 1
    41   21   40 1
    42   22   41 1
    43   22   42 1
    44   23   43 1
    45   23   44 1
    46   23   45 1
@<TRIPOS>MOLECULE
ZINC67191164
   49    50     0     0     0
SMALL
USER_CHARGES

@<TRIPOS>ATOM
      1 C1         -0.0187    1.5258    0.0104 C.3       1 <0>        -0.1634
      2 C2          0.0021   -0.0041    0.0020 C.3       1 <0>         0.1578
      3 H1         -1.0205   -0.3814    0.0098 H         1 <0>         0.0950
      4 C3          0.7182   -0.4975   -1.2568 C.3       1 <0>        -0.1445
      5 C4          0.6316   -2.0003   -1.3275 C.2       1 <0>         0.5326
      6 O1          0.0540   -2.6161   -0.4568 O.2       1 <0>        -0.5077
      7 N1          1.1961   -2.6601   -2.3583 N.am      1 <0>        -0.6081
      8 C5          1.9306   -2.0402   -3.4762 C.3       1 <0>         0.0986
      9 C6          2.8667   -3.1564   -4.0030 C.3       1 <0>        -0.1343
     10 C7          1.9712   -4.4137   -3.8464 C.3       1 <0>        -0.1251
     11 C8          1.1868   -4.1176   -2.5509 C.3       1 <0>         0.1176
     12 H2          0.1609   -4.4717   -2.6519 H         1 <0>         0.1013
     13 C9          1.8524   -4.7935   -1.3799 C.2       1 <0>         0.5110
     14 O2          2.2950   -4.1286   -0.4672 O.2       1 <0>        -0.5190
     15 N2          1.9558   -6.1369   -1.3468 N.am      1 <0>        -0.8567
     16 N3          0.7106   -0.4894    1.1889 N.am      1 <0>        -0.7155
     17 C10         0.0512   -0.6335    2.3554 C.2       1 <0>         0.5262
     18 O3         -1.1288   -0.3614    2.4226 O.2       1 <0>        -0.5419
     19 C11         0.7801   -1.1327    3.5763 C.3       1 <0>        -0.1047
     20 C12         1.3470   -2.5262    3.2976 C.3       1 <0>        -0.1036
     21 C13         2.0869   -3.0330    4.5372 C.3       1 <0>        -0.1167
     22 C14         1.1158   -3.1042    5.7173 C.3       1 <0>        -0.1222
     23 C15         0.5490   -1.7106    5.9960 C.3       1 <0>        -0.1194
     24 C16        -0.1910   -1.2038    4.7565 C.3       1 <0>        -0.0984
     25 H3          1.0039    1.9031    0.0027 H         1 <0>         0.0578
     26 H4         -0.5459    1.8868   -0.8726 H         1 <0>         0.0668
     27 H5         -0.5289    1.8773    0.9072 H         1 <0>         0.0660
     28 H6          0.2444   -0.0644   -2.1377 H         1 <0>         0.1078
     29 H7          1.7648   -0.1951   -1.2215 H         1 <0>         0.0982
     30 H8          1.2382   -1.7259   -4.2572 H         1 <0>         0.0757
     31 H9          2.5148   -1.1910   -3.1218 H         1 <0>         0.0804
     32 H10         3.1251   -2.9885   -5.0486 H         1 <0>         0.0919
     33 H11         3.7635   -3.2364   -3.3886 H         1 <0>         0.0786
     34 H12         1.2958   -4.5144   -4.6960 H         1 <0>         0.0918
     35 H13         2.5812   -5.3094   -3.7290 H         1 <0>         0.0874
     36 H14         1.6018   -6.6687   -2.0767 H         1 <0>         0.4002
     37 H15         2.3842   -6.5719   -0.5931 H         1 <0>         0.4032
     38 H16         1.6544   -0.7070    1.1351 H         1 <0>         0.3970
     39 H17         1.5952   -0.4503    3.8172 H         1 <0>         0.0925
     40 H18         0.5318   -3.2085    3.0568 H         1 <0>         0.0669
     41 H19         2.0388   -2.4755    2.4569 H         1 <0>         0.0670
     42 H20         2.4908   -4.0258    4.3386 H         1 <0>         0.0636
     43 H21         2.9021   -2.3507    4.7780 H         1 <0>         0.0620
     44 H22         0.3007   -3.7865    5.4765 H         1 <0>         0.0620
     45 H23         1.6430   -3.4652    6.6004 H         1 <0>         0.0616
     46 H24        -0.1429   -1.7613    6.8368 H         1 <0>         0.0648
     47 H25         1.3641   -1.0283    6.2369 H         1 <0>         0.0615
     48 H26        -0.5949   -0.2111    4.9551 H         1 <0>         0.0677
     49 H27        -1.0062   -1.8862    4.5157 H         1 <0>         0.0688
@<TRIPOS>BOND
     1    1    2 1
     2    1   25 1
     3    1   26 1
     4    1   27 1
     5    2    3 1
     6    2    4 1
     7    2   16 1
     8    4    5 1
     9    4   28 1
    10    4   29 1
    11    5    6 2
    12    5    7 am
    13    7   11 1
    14    7    8 1
    15    8    9 1
    16    8   30 1
    17    8   31 1
    18    9   10 1
    19    9   32 1
    20    9   33 1
    21   10   11 1
    22   10   34 1
    23   10   35 1
    24   11   12 1
    25   11   13 1
    26   13   14 2
    27   13   15 am
    28   15   36 1
    29   15   37 1
    30   16   17 am
    31   16   38 1
    32   17   18 2
    33   17   19 1
    34   19   24 1
    35   19   20 1
    36   19   39 1
    37   20   21 1
    38   20   40 1
    39   20   41 1
    40   21   22 1
    41   21   42 1
    42   21   43 1
    43   22   23 1
    44   22   44 1
    45   22   45 1
    46   23   24 1
    47   23   46 1
    48   23   47 1
    49   24   48 1
    50   24   49 1
@<TRIPOS>MOLECULE
ZINC07306115
   45    46     0     0     0
SMALL
USER_CHARGES
1-[(4-acetylphenyl)carbamoyl]ethyl 2-amino-3-methyl-benzoate
@<TRIPOS>ATOM
      1 C1         -5.1648   10.8821   -1.2644 C.3       1 <0>        -0.1079
      2 C2         -4.0367    9.9979   -0.7990 C.ar      1 <0>        -0.1738
      3 C3         -2.8351   10.5578   -0.4160 C.ar      1 <0>        -0.0355
      4 C4         -1.7909    9.7538    0.0127 C.ar      1 <0>        -0.1842
      5 C5         -1.9409    8.3853    0.0623 C.ar      1 <0>        -0.0198
      6 C6         -3.1516    7.8023   -0.3217 C.ar      1 <0>        -0.2103
      7 C7         -4.2058    8.6195   -0.7611 C.ar      1 <0>         0.2816
      8 N1         -5.4120    8.0533   -1.1510 N.pl3     1 <0>        -0.8586
      9 C8         -3.3189    6.3397   -0.2716 C.2       1 <0>         0.5237
     10 O1         -4.3343    5.8292   -0.7018 O.2       1 <0>        -0.5186
     11 O2         -2.3459    5.5677    0.2512 O.3       1 <0>        -0.3224
     12 C9         -2.5789    4.1346    0.2680 C.3       1 <0>         0.0744
     13 H1         -3.2141    3.8600   -0.5741 H         1 <0>         0.1167
     14 C10        -3.2699    3.7455    1.5764 C.3       1 <0>        -0.1671
     15 C11        -1.2617    3.4103    0.1608 C.2       1 <0>         0.5188
     16 O3         -0.2230    4.0362    0.1699 O.2       1 <0>        -0.4880
     17 N2         -1.2381    2.0669    0.0550 N.am      1 <0>        -0.6687
     18 C12        -0.0205    1.3900    0.0483 C.ar      1 <0>         0.1781
     19 C13         1.0891    1.9636   -0.5664 C.ar      1 <0>        -0.1358
     20 C14         2.2878    1.2987   -0.5803 C.ar      1 <0>        -0.0511
     21 C15         2.3952    0.0404    0.0252 C.ar      1 <0>        -0.1889
     22 C16         1.2762   -0.5328    0.6424 C.ar      1 <0>        -0.0392
     23 C17         0.0816    0.1394    0.6514 C.ar      1 <0>        -0.1558
     24 C18         3.6772   -0.6756    0.0133 C.2       1 <0>         0.3956
     25 O4          3.7683   -1.7651    0.5386 O.2       1 <0>        -0.4595
     26 C19         4.8798   -0.0567   -0.6514 C.3       1 <0>        -0.1935
     27 H2         -5.0950   11.0228   -2.3430 H         1 <0>         0.0677
     28 H3         -6.1182   10.4136   -1.0201 H         1 <0>         0.0639
     29 H4         -5.0972   11.8495   -0.7667 H         1 <0>         0.0709
     30 H5         -2.7074   11.6297   -0.4509 H         1 <0>         0.1293
     31 H6         -0.8546   10.2026    0.3098 H         1 <0>         0.1299
     32 H7         -1.1239    7.7637    0.3980 H         1 <0>         0.1382
     33 H8         -5.6761    7.1871   -0.8034 H         1 <0>         0.4116
     34 H9         -5.9908    8.5240   -1.7711 H         1 <0>         0.3990
     35 H10        -2.6347    4.0202    2.4184 H         1 <0>         0.0769
     36 H11        -4.2226    4.2695    1.6538 H         1 <0>         0.0805
     37 H12        -3.4449    2.6697    1.5889 H         1 <0>         0.0830
     38 H13        -2.0689    1.5714   -0.0166 H         1 <0>         0.4161
     39 H14         1.0053    2.9340   -1.0330 H         1 <0>         0.1459
     40 H15         3.1481    1.7447   -1.0571 H         1 <0>         0.1387
     41 H16         1.3546   -1.5028    1.1108 H         1 <0>         0.1392
     42 H17        -0.7817   -0.3017    1.1274 H         1 <0>         0.1345
     43 H18         5.3835    0.4924    0.0155 H         1 <0>         0.0885
     44 H19         5.5273   -0.8442   -1.0369 H         1 <0>         0.0891
     45 H20         4.5529    0.5799   -1.4736 H         1 <0>         0.0868
@<TRIPOS>BOND
     1    1    2 1
     2    1   27 1
     3    1   28 1
     4    1   29 1
     5    2    7 ar
     6    2    3 ar
     7    3    4 ar
     8    3   30 1
     9    4    5 ar
    10    4   31 1
    11    5    6 ar
    12    5   32 1
    13    6    7 ar
    14    6    9 1
    15    7    8 1
    16    8   33 1
    17    8   34 1
    18    9   10 2
    19    9   11 1
    20   11   12 1
    21   12   13 1
    22   12   14 1
    23   12   15 1
    24   14   35 1
    25   14   36 1
    26   14   37 1
    27   15   16 2
    28   15   17 am
    29   17   18 1
    30   17   38 1
    31   18   23 ar
    32   18   19 ar
    33   19   20 ar
    34   19   39 1
    35   20   21 ar
    36   20   40 1
    37   21   22 ar
    38   21   24 1
    39   22   23 ar
    40   22   41 1
    41   23   42 1
    42   24   25 2
    43   24   26 1
    44   26   43 1
    45   26   44 1
    46   26   45 1
@<TRIPOS>MOLECULE
ZINC43769314
   47    48     0     0     0
SMALL
USER_CHARGES

@<TRIPOS>ATOM
      1 C1         -0.0980    2.5204   -0.7590 C.3       1 <0>        -0.1879
      2 C2         -0.1054    1.0231   -0.4443 C.3       1 <0>         0.1356
      3 C3          0.6256    0.7761    0.8769 C.3       1 <0>        -0.1878
      4 C4         -1.5502    0.5337   -0.3271 C.3       1 <0>        -0.1414
      5 O1          0.5546    0.3125   -1.4939 O.3       1 <0>        -0.3606
      6 C5          1.8426    0.6265   -1.7288 C.2       1 <0>         0.6593
      7 O2          2.3913    1.4805   -1.0609 O.2       1 <0>        -0.5473
      8 N1          2.5233   -0.0064   -2.7048 N.am      1 <0>        -0.4812
      9 N2          1.8906   -0.9911   -3.4748 N.pl3     1 <0>        -0.5437
     10 C6          2.5892   -1.6407   -4.4764 C.2       1 <0>         0.4581
     11 C7          3.8804   -1.3259   -4.7119 C.2       1 <0>        -0.3552
     12 C8          4.5735   -1.8888   -5.8819 C.ar      1 <0>         0.0184
     13 C9          3.8640   -2.1583   -7.0566 C.ar      1 <0>        -0.1660
     14 C10         4.5206   -2.6852   -8.1486 C.ar      1 <0>        -0.1047
     15 C11         5.8780   -2.9473   -8.0844 C.ar      1 <0>        -0.1471
     16 C12         6.5870   -2.6838   -6.9253 C.ar      1 <0>        -0.1060
     17 C13         5.9459   -2.1515   -5.8266 C.ar      1 <0>        -0.1340
     18 N3          1.9646   -2.6128   -5.2366 N.pl3     1 <0>        -0.7380
     19 C14         0.5311   -2.8646   -5.0695 C.3       1 <0>         0.1925
     20 C15         0.1014   -3.9631   -6.0075 C.2       1 <0>        -0.0431
     21 C16         0.0921   -5.2785   -5.7267 C.2       1 <0>        -0.1764
     22 C17        -0.3797   -5.9410   -6.8832 C.2       1 <0>        -0.2178
     23 C18        -0.6304   -4.9907   -7.8016 C.2       1 <0>        -0.0228
     24 O3         -0.3427   -3.7942   -7.2637 O.3       1 <0>        -0.1699
     25 H1          0.9313    2.8690   -0.8426 H         1 <0>         0.0876
     26 H2         -0.6188    2.6963   -1.7003 H         1 <0>         0.0611
     27 H3         -0.6014    3.0624    0.0415 H         1 <0>         0.0735
     28 H4          0.1222    1.3181    1.6775 H         1 <0>         0.0735
     29 H5          0.6204   -0.2906    1.1011 H         1 <0>         0.0609
     30 H6          1.6549    1.1248    0.7934 H         1 <0>         0.0876
     31 H7         -2.0710    0.7096   -1.2683 H         1 <0>         0.0676
     32 H8         -1.5554   -0.5330   -0.1029 H         1 <0>         0.0674
     33 H9         -2.0536    1.0757    0.4735 H         1 <0>         0.0836
     34 H10         3.4512    0.2198   -2.8740 H         1 <0>         0.4477
     35 H11         4.4050   -0.6610   -4.0418 H         1 <0>         0.1213
     36 H12         2.8047   -1.9545   -7.1081 H         1 <0>         0.1246
     37 H13         3.9741   -2.8942   -9.0564 H         1 <0>         0.1163
     38 H14         6.3867   -3.3601   -8.9431 H         1 <0>         0.1163
     39 H15         7.6460   -2.8915   -6.8827 H         1 <0>         0.1180
     40 H16         6.5013   -1.9423   -4.9244 H         1 <0>         0.1193
     41 H17         2.4757   -3.1278   -5.8804 H         1 <0>         0.4273
     42 H18         0.3327   -3.1667   -4.0412 H         1 <0>         0.0914
     43 H19        -0.0262   -1.9555   -5.2951 H         1 <0>         0.0825
     44 H20         0.3886   -5.7401   -4.7964 H         1 <0>         0.1513
     45 H21        -0.5129   -7.0057   -7.0058 H         1 <0>         0.1524
     46 H22        -1.0036   -5.1608   -8.8007 H         1 <0>         0.2069
     47 H23         0.9627   -1.2173   -3.3055 H         1 <0>         0.4289
@<TRIPOS>BOND
     1    1    2 1
     2    1   25 1
     3    1   26 1
     4    1   27 1
     5    2    3 1
     6    2    4 1
     7    2    5 1
     8    3   28 1
     9    3   29 1
    10    3   30 1
    11    4   31 1
    12    4   32 1
    13    4   33 1
    14    5    6 1
    15    6    7 2
    16    6    8 am
    17    8    9 1
    18    8   34 1
    19    9   10 1
    20    9   47 1
    21   10   11 2
    22   10   18 1
    23   11   12 1
    24   11   35 1
    25   12   17 ar
    26   12   13 ar
    27   13   14 ar
    28   13   36 1
    29   14   15 ar
    30   14   37 1
    31   15   16 ar
    32   15   38 1
    33   16   17 ar
    34   16   39 1
    35   17   40 1
    36   18   19 1
    37   18   41 1
    38   19   20 1
    39   19   42 1
    40   19   43 1
    41   20   24 1
    42   20   21 2
    43   21   22 1
    44   21   44 1
    45   22   23 2
    46   22   45 1
    47   23   24 1
    48   23   46 1
@<TRIPOS>MOLECULE
ZINC58091916
   53    53     0     0     0
SMALL
USER_CHARGES

@<TRIPOS>ATOM
      1 C1         -0.6348    1.8333    1.6486 C.3       1 <0>        -0.1506
      2 C2         -0.5038    0.3294    1.3992 C.3       1 <0>        -0.1361
      3 C3          0.2939    0.0930    0.1152 C.3       1 <0>         0.1362
      4 N1          0.4194   -1.3470   -0.1236 N.am      1 <0>        -0.7463
      5 C4          1.0872   -1.7950   -1.2051 C.2       1 <0>         0.7093
      6 O1          1.5856   -1.0042   -1.9826 O.2       1 <0>        -0.5776
      7 N2          1.2026   -3.1197   -1.4248 N.am      1 <0>        -0.7439
      8 C5          1.9285   -3.6068   -2.6005 C.3       1 <0>         0.1827
      9 C6          1.2567   -3.0788   -3.8696 C.3       1 <0>        -0.1520
     10 C7          3.3759   -3.1136   -2.5466 C.3       1 <0>        -0.1611
     11 C8          1.9114   -5.1136   -2.6127 C.2       1 <0>         0.5176
     12 O2          1.8492   -5.7108   -3.6665 O.2       1 <0>        -0.5196
     13 N3          1.9653   -5.7976   -1.4527 N.am      1 <0>        -0.7255
     14 C9          1.9487   -7.2625   -1.4646 C.3       1 <0>         0.1645
     15 C10         2.0179   -7.7772   -0.0499 C.ar      1 <0>        -0.1535
     16 C11         3.2461   -8.0206    0.5367 C.ar      1 <0>        -0.0574
     17 C12         3.3122   -8.4928    1.8332 C.ar      1 <0>        -0.2125
     18 C13         2.1449   -8.7224    2.5469 C.ar      1 <0>         0.1442
     19 C14         0.9138   -8.4770    1.9562 C.ar      1 <0>        -0.1553
     20 C15         0.8532   -7.9998    0.6612 C.ar      1 <0>        -0.0593
     21 O3          2.2072   -9.1874    3.8224 O.3       1 <0>        -0.3092
     22 C16         3.5001   -9.5301    4.3255 C.3       1 <0>         0.0761
     23 C17         4.1832   -8.2754    4.8732 C.3       1 <0>        -0.1816
     24 C18         3.3544  -10.5618    5.4458 C.3       1 <0>        -0.1505
     25 H1          0.3576    2.2723    1.7513 H         1 <0>         0.0586
     26 H2         -1.1522    2.2971    0.8088 H         1 <0>         0.0588
     27 H3         -1.2031    2.0017    2.5633 H         1 <0>         0.0608
     28 H4          0.0136   -0.1344    2.2390 H         1 <0>         0.0682
     29 H5         -1.4961   -0.1096    1.2965 H         1 <0>         0.0684
     30 H6         -0.2234    0.5568   -0.7246 H         1 <0>         0.0677
     31 H7          1.2863    0.5321    0.2179 H         1 <0>         0.0676
     32 H8          0.0218   -1.9779    0.4967 H         1 <0>         0.3957
     33 H9          0.8050   -3.7507   -0.8046 H         1 <0>         0.3938
     34 H10         1.2690   -1.9889   -3.8607 H         1 <0>         0.0892
     35 H11         1.7968   -3.4412   -4.7443 H         1 <0>         0.0760
     36 H12         0.2256   -3.4301   -3.9080 H         1 <0>         0.0571
     37 H13         3.8545   -3.4897   -1.6425 H         1 <0>         0.0579
     38 H14         3.9160   -3.4760   -3.4213 H         1 <0>         0.0723
     39 H15         3.3882   -2.0237   -2.5377 H         1 <0>         0.0954
     40 H16         2.0151   -5.3200   -0.6099 H         1 <0>         0.4000
     41 H17         1.0288   -7.6116   -1.9337 H         1 <0>         0.0791
     42 H18         2.8062   -7.6310   -2.0276 H         1 <0>         0.0782
     43 H19         4.1545   -7.8417   -0.0194 H         1 <0>         0.1269
     44 H20         4.2717   -8.6835    2.2907 H         1 <0>         0.1322
     45 H21         0.0037   -8.6550    2.5098 H         1 <0>         0.1332
     46 H22        -0.1048   -7.8044    0.2025 H         1 <0>         0.1314
     47 H23         4.1034   -9.9504    3.5208 H         1 <0>         0.0746
     48 H24         4.2871   -7.5404    4.0750 H         1 <0>         0.0625
     49 H25         3.5799   -7.8552    5.6779 H         1 <0>         0.0688
     50 H26         5.1694   -8.5368    5.2570 H         1 <0>         0.0740
     51 H27         2.8677  -11.4557    5.0556 H         1 <0>         0.0660
     52 H28         4.3405  -10.8232    5.8296 H         1 <0>         0.0788
     53 H29         2.7510  -10.1416    6.2505 H         1 <0>         0.0682
@<TRIPOS>BOND
     1    1    2 1
     2    1   25 1
     3    1   26 1
     4    1   27 1
     5    2    3 1
     6    2   28 1
     7    2   29 1
     8    3    4 1
     9    3   30 1
    10    3   31 1
    11    4    5 am
    12    4   32 1
    13    5    6 2
    14    5    7 am
    15    7    8 1
    16    7   33 1
    17    8    9 1
    18    8   10 1
    19    8   11 1
    20    9   34 1
    21    9   35 1
    22    9   36 1
    23   10   37 1
    24   10   38 1
    25   10   39 1
    26   11   12 2
    27   11   13 am
    28   13   14 1
    29   13   40 1
    30   14   15 1
    31   14   41 1
    32   14   42 1
    33   15   20 ar
    34   15   16 ar
    35   16   17 ar
    36   16   43 1
    37   17   18 ar
    38   17   44 1
    39   18   19 ar
    40   18   21 1
    41   19   20 ar
    42   19   45 1
    43   20   46 1
    44   21   22 1
    45   22   23 1
    46   22   24 1
    47   22   47 1
    48   23   48 1
    49   23   49 1
    50   23   50 1
    51   24   51 1
    52   24   52 1
    53   24   53 1
@<TRIPOS>MOLECULE
ZINC65192187
   40    41     0     0     0
SMALL
USER_CHARGES

@<TRIPOS>ATOM
      1 C1         -0.0166    1.3733    0.0096 C.ar      1 <0>        -0.1371
      2 C2          1.1699    2.0891    0.0021 C.ar      1 <0>        -0.0602
      3 C3          2.3841    1.4307   -0.0134 C.ar      1 <0>        -0.1936
      4 C4          2.4238    0.0452   -0.0212 C.ar      1 <0>         0.1328
      5 C5          1.2246   -0.6846   -0.0132 C.ar      1 <0>        -0.0852
      6 C6          0.0021   -0.0041    0.0020 C.ar      1 <0>        -0.0640
      7 C7          1.2530   -2.1537   -0.0218 C.2       1 <0>         0.0052
      8 C8          0.0972   -2.8513   -0.0141 C.2       1 <0>        -0.2135
      9 C9          0.1255   -4.3134   -0.0226 C.2       1 <0>         0.5531
     10 O1          1.1912   -4.9014   -0.0367 O.2       1 <0>        -0.5319
     11 N1         -1.0284   -5.0098   -0.0149 N.am      1 <0>        -0.5265
     12 N2         -1.0013   -6.4105   -0.0231 N.am      1 <0>        -0.5307
     13 C10        -2.1552   -7.1069   -0.0154 C.2       1 <0>         0.7133
     14 O2         -2.1316   -8.3225   -0.0225 O.2       1 <0>        -0.5678
     15 N3         -3.3351   -6.4558    0.0002 N.am      1 <0>        -0.7409
     16 C11        -4.5894   -7.2128    0.0086 C.3       1 <0>         0.1666
     17 C12        -5.7712   -6.2413    0.0261 C.3       1 <0>        -0.1754
     18 C13        -6.6875   -6.2654    1.2511 C.3       1 <0>        -0.1760
     19 C14        -7.1766   -6.8365   -0.0814 C.3       1 <0>        -0.1672
     20 O3          3.6160   -0.6025   -0.0369 O.3       1 <0>        -0.3060
     21 C15         4.7939    0.2066   -0.0447 C.3       1 <0>         0.6049
     22 F1          4.8167    1.0081    1.1016 F         1 <0>        -0.1625
     23 F2          5.9250   -0.6166   -0.0608 F         1 <0>        -0.1261
     24 F3          4.7932    1.0203   -1.1828 F         1 <0>        -0.1626
     25 H1         -0.9605    1.8979    0.0259 H         1 <0>         0.1377
     26 H2          1.1451    3.1688    0.0081 H         1 <0>         0.1385
     27 H3          3.3040    1.9965   -0.0199 H         1 <0>         0.1393
     28 H4         -0.9252   -0.5577    0.0082 H         1 <0>         0.1438
     29 H5          2.1986   -2.6755   -0.0343 H         1 <0>         0.1444
     30 H6         -0.8483   -2.3295   -0.0016 H         1 <0>         0.1369
     31 H7         -1.8776   -4.5412   -0.0037 H         1 <0>         0.4199
     32 H8         -0.1520   -6.8791   -0.0343 H         1 <0>         0.4449
     33 H9         -3.3539   -5.4860    0.0059 H         1 <0>         0.3918
     34 H10        -4.6440   -7.8354   -0.8844 H         1 <0>         0.0756
     35 H11        -4.6260   -7.8454    0.8955 H         1 <0>         0.0731
     36 H12        -5.5949   -5.2777   -0.4520 H         1 <0>         0.1103
     37 H13        -6.4484   -6.9734    2.0446 H         1 <0>         0.0983
     38 H14        -7.1141   -5.3175    1.5793 H         1 <0>         0.0972
     39 H15        -7.9249   -6.2643   -0.6298 H         1 <0>         0.0998
     40 H16        -7.2592   -7.9202   -0.1645 H         1 <0>         0.0997
@<TRIPOS>BOND
     1    1    6 ar
     2    1    2 ar
     3    1   25 1
     4    2    3 ar
     5    2   26 1
     6    3    4 ar
     7    3   27 1
     8    4    5 ar
     9    4   20 1
    10    5    6 ar
    11    5    7 1
    12    6   28 1
    13    7    8 2
    14    7   29 1
    15    8    9 1
    16    8   30 1
    17    9   10 2
    18    9   11 am
    19   11   12 1
    20   11   31 1
    21   12   13 am
    22   12   32 1
    23   13   14 2
    24   13   15 am
    25   15   16 1
    26   15   33 1
    27   16   17 1
    28   16   34 1
    29   16   35 1
    30   17   19 1
    31   17   18 1
    32   17   36 1
    33   18   19 1
    34   18   37 1
    35   18   38 1
    36   19   39 1
    37   19   40 1
    38   20   21 1
    39   21   22 1
    40   21   23 1
    41   21   24 1
@<TRIPOS>MOLECULE
ZINC66966642
   47    47     0     0     0
SMALL
USER_CHARGES

@<TRIPOS>ATOM
      1 C1         -0.0108    1.4988   -0.3190 C.3       1 <0>        -0.1697
      2 C2          0.0036   -0.0094   -0.0617 C.3       1 <0>         0.1358
      3 H1          0.5544   -0.5087   -0.8589 H         1 <0>         0.1122
      4 C3          0.6714   -0.2870    1.2604 C.2       1 <0>         0.5153
      5 O1          0.0588   -0.8495    2.1426 O.2       1 <0>        -0.4541
      6 N1          1.9495    0.0899    1.4621 N.am      1 <0>        -0.6886
      7 C4          2.5467   -0.1584    2.6446 C.2       1 <0>         0.6934
      8 O2          1.9326   -0.7223    3.5289 O.2       1 <0>        -0.5264
      9 N2          3.8249    0.2185    2.8463 N.am      1 <0>        -0.7328
     10 C5          4.4740   -0.0514    4.1316 C.3       1 <0>         0.1511
     11 C6          5.0474   -1.4699    4.1254 C.3       1 <0>        -0.1667
     12 C7          5.6050    0.9549    4.3530 C.3       1 <0>        -0.1613
     13 N3         -1.3719   -0.5124   -0.0293 N.pl3     1 <0>        -0.7211
     14 C8         -2.0191   -0.8575   -1.2212 C.ar      1 <0>         0.2245
     15 C9         -1.3576   -0.7294   -2.4338 C.ar      1 <0>        -0.2088
     16 C10        -1.9998   -1.0718   -3.6110 C.ar      1 <0>         0.1117
     17 C11        -3.3018   -1.5418   -3.5806 C.ar      1 <0>        -0.1696
     18 C12        -3.9656   -1.6714   -2.3744 C.ar      1 <0>        -0.1373
     19 C13        -3.3271   -1.3360   -1.1922 C.ar      1 <0>         0.0586
     20 O3         -3.9781   -1.4683   -0.0048 O.3       1 <0>        -0.3100
     21 C14        -5.3555   -1.8447   -0.0586 C.3       1 <0>         0.0809
     22 C15        -5.4647   -3.3677   -0.1547 C.3       1 <0>        -0.1823
     23 C16        -6.0661   -1.3613    1.2072 C.3       1 <0>        -0.1502
     24 F1         -1.3553   -0.9469   -4.7918 F         1 <0>        -0.1393
     25 H2          1.0127    1.8730   -0.3432 H         1 <0>         0.0717
     26 H3         -0.4938    1.6996   -1.2753 H         1 <0>         0.0802
     27 H4         -0.5615    1.9981    0.4781 H         1 <0>         0.0701
     28 H5          2.4396    0.5399    0.7563 H         1 <0>         0.4106
     29 H6          4.3150    0.6685    2.1405 H         1 <0>         0.3981
     30 H7          3.7427    0.0414    4.9346 H         1 <0>         0.0913
     31 H8          5.5304   -1.6707    5.0817 H         1 <0>         0.0692
     32 H9          4.2416   -2.1868    3.9677 H         1 <0>         0.0614
     33 H10         5.7787   -1.5627    3.3225 H         1 <0>         0.0575
     34 H11         5.1965    1.9655    4.3574 H         1 <0>         0.0630
     35 H12         6.0880    0.7541    5.3093 H         1 <0>         0.0770
     36 H13         6.3363    0.8621    3.5501 H         1 <0>         0.0624
     37 H14        -1.8341   -0.6062    0.8183 H         1 <0>         0.4193
     38 H15        -0.3422   -0.3622   -2.4593 H         1 <0>         0.1401
     39 H16        -3.8003   -1.8075   -4.5011 H         1 <0>         0.1352
     40 H17        -4.9811   -2.0383   -2.3540 H         1 <0>         0.1402
     41 H18        -5.8223   -1.3911   -0.9330 H         1 <0>         0.0732
     42 H19        -6.5154   -3.6548   -0.1957 H         1 <0>         0.0724
     43 H20        -4.9585   -3.7121   -1.0565 H         1 <0>         0.0630
     44 H21        -4.9980   -3.8213    0.7197 H         1 <0>         0.0684
     45 H22        -5.9884   -0.2762    1.2756 H         1 <0>         0.0648
     46 H23        -7.1168   -1.6484    1.1662 H         1 <0>         0.0776
     47 H24        -5.5994   -1.8148    2.0816 H         1 <0>         0.0680
@<TRIPOS>BOND
     1    1    2 1
     2    1   25 1
     3    1   26 1
     4    1   27 1
     5    2    3 1
     6    2    4 1
     7    2   13 1
     8    4    5 2
     9    4    6 am
    10    6    7 am
    11    6   28 1
    12    7    8 2
    13    7    9 am
    14    9   10 1
    15    9   29 1
    16   10   11 1
    17   10   12 1
    18   10   30 1
    19   11   31 1
    20   11   32 1
    21   11   33 1
    22   12   34 1
    23   12   35 1
    24   12   36 1
    25   13   14 1
    26   13   37 1
    27   14   19 ar
    28   14   15 ar
    29   15   16 ar
    30   15   38 1
    31   16   17 ar
    32   16   24 1
    33   17   18 ar
    34   17   39 1
    35   18   19 ar
    36   18   40 1
    37   19   20 1
    38   20   21 1
    39   21   22 1
    40   21   23 1
    41   21   41 1
    42   22   42 1
    43   22   43 1
    44   22   44 1
    45   23   45 1
    46   23   46 1
    47   23   47 1
@<TRIPOS>MOLECULE
ZINC08654114
   46    47     0     0     0
SMALL
USER_CHARGES
2-amino-4-ethyl-N-[(2-isobutoxyphenyl)methyleneamino]thiazole-5-carboxamide
@<TRIPOS>ATOM
      1 C1          3.5052   10.7137    1.4530 C.3       1 <0>        -0.1358
      2 C2          3.8879   10.3878    0.0080 C.3       1 <0>        -0.0652
      3 C3          5.0443    9.4215    0.0003 C.2       1 <0>         0.2185
      4 C4          4.8326    8.0499    0.0006 C.2       1 <0>        -0.3179
      5 S1          6.5186    7.4573   -0.0187 S.3       1 <0>         0.0545
      6 C5          7.3039    9.0060   -0.0171 C.2       1 <0>         0.3767
      7 N1          6.2808    9.8474   -0.0027 N.2       1 <0>        -0.5852
      8 N2          8.6530    9.2889   -0.0281 N.pl3     1 <0>        -0.7833
      9 C6          3.5787    7.2985    0.0080 C.2       1 <0>         0.6368
     10 O1          2.5143    7.8902    0.0210 O.2       1 <0>        -0.4811
     11 N3          3.6006    5.9509    0.0006 N.am      1 <0>        -0.5850
     12 N4          2.3989    5.2308    0.0077 N.2       1 <0>        -0.1910
     13 C7          2.4199    3.9328    0.0006 C.2       1 <0>         0.1012
     14 C8          1.1558    3.1753    0.0081 C.ar      1 <0>        -0.0930
     15 C9          1.1739    1.7786    0.0004 C.ar      1 <0>        -0.0514
     16 C10        -0.0126    1.0758    0.0080 C.ar      1 <0>        -0.1655
     17 C11        -1.2225    1.7488    0.0174 C.ar      1 <0>        -0.0613
     18 C12        -1.2537    3.1305    0.0308 C.ar      1 <0>        -0.2189
     19 C13        -0.0713    3.8522    0.0234 C.ar      1 <0>         0.1678
     20 O2         -0.1011    5.2100    0.0315 O.3       1 <0>        -0.2702
     21 C14        -1.3882    5.8306    0.0470 C.3       1 <0>         0.0597
     22 C15        -1.2210    7.3514    0.0542 C.3       1 <0>        -0.0873
     23 C16        -0.5716    7.7992   -1.2568 C.3       1 <0>        -0.1394
     24 C17        -2.5925    8.0146    0.1965 C.3       1 <0>        -0.1463
     25 H1          3.2164    9.7974    1.9679 H         1 <0>         0.0577
     26 H2          4.3577   11.1633    1.9621 H         1 <0>         0.0521
     27 H3          2.6687   11.4126    1.4586 H         1 <0>         0.0646
     28 H4          4.1766   11.3041   -0.5069 H         1 <0>         0.0798
     29 H5          3.0353    9.9382   -0.5011 H         1 <0>         0.1037
     30 H6          9.3000    8.5662   -0.0380 H         1 <0>         0.4247
     31 H7          8.9553   10.2105   -0.0260 H         1 <0>         0.4213
     32 H8          4.4484    5.4796   -0.0097 H         1 <0>         0.3782
     33 H9          3.3638    3.4081   -0.0109 H         1 <0>         0.1185
     34 H10         2.1156    1.2500   -0.0118 H         1 <0>         0.1339
     35 H11         0.0021   -0.0041    0.0020 H         1 <0>         0.1283
     36 H12        -2.1472    1.1908    0.0184 H         1 <0>         0.1265
     37 H13        -2.2014    3.6483    0.0423 H         1 <0>         0.1305
     38 H14        -1.9470    5.5306   -0.8395 H         1 <0>         0.0590
     39 H15        -1.9303    5.5205    0.9404 H         1 <0>         0.0583
     40 H16        -0.5876    7.6434    0.8918 H         1 <0>         0.0841
     41 H17         0.4054    7.3268   -1.3582 H         1 <0>         0.0735
     42 H18        -1.2051    7.5072   -2.0944 H         1 <0>         0.0424
     43 H19        -0.4525    8.8827   -1.2517 H         1 <0>         0.0525
     44 H20        -3.0552    7.6955    1.1305 H         1 <0>         0.0545
     45 H21        -2.4734    9.0980    0.2016 H         1 <0>         0.0640
     46 H22        -3.2260    7.7226   -0.6411 H         1 <0>         0.0550
@<TRIPOS>BOND
     1    1    2 1
     2    1   25 1
     3    1   26 1
     4    1   27 1
     5    2    3 1
     6    2   28 1
     7    2   29 1
     8    3    7 1
     9    3    4 2
    10    4    5 1
    11    4    9 1
    12    5    6 1
    13    6    7 2
    14    6    8 1
    15    8   30 1
    16    8   31 1
    17    9   10 2
    18    9   11 am
    19   11   12 1
    20   11   32 1
    21   12   13 2
    22   13   14 1
    23   13   33 1
    24   14   19 ar
    25   14   15 ar
    26   15   16 ar
    27   15   34 1
    28   16   17 ar
    29   16   35 1
    30   17   18 ar
    31   17   36 1
    32   18   19 ar
    33   18   37 1
    34   19   20 1
    35   20   21 1
    36   21   22 1
    37   21   38 1
    38   21   39 1
    39   22   23 1
    40   22   24 1
    41   22   40 1
    42   23   41 1
    43   23   42 1
    44   23   43 1
    45   24   44 1
    46   24   45 1
    47   24   46 1
@<TRIPOS>MOLECULE
ZINC30880509
   60    60     0     0     0
SMALL
USER_CHARGES
2-[(1S,4S,5S)-4-[(ethylcarbamoylamino)methyl]-5-isopropyl-2-methyl-cyclohex-2-en-1-yl]-N-(2-methoxyethyl)acetamide
@<TRIPOS>ATOM
      1 C1         -1.8891    7.8037    3.2736 C.3       1 <0>        -0.1655
      2 C2         -0.8219    6.7695    3.6375 C.3       1 <0>         0.1353
      3 N1         -0.6281    5.8512    2.5126 N.am      1 <0>        -0.7591
      4 C3          0.2700    4.8507    2.6064 C.2       1 <0>         0.7035
      5 O1          0.9194    4.7102    3.6247 O.2       1 <0>        -0.5980
      6 N2          0.4483    4.0059    1.5716 N.am      1 <0>        -0.7555
      7 C4          1.4245    2.9183    1.6736 C.3       1 <0>         0.1513
      8 C5          1.4296    2.1139    0.3721 C.3       1 <0>        -0.0639
      9 H1          1.5857    2.7801   -0.4892 H         1 <0>         0.0896
     10 C6          0.1012    1.4374    0.2002 C.2       1 <0>        -0.1552
     11 C7         -0.0440    0.2158   -0.2024 C.2       1 <0>        -0.1122
     12 C8          1.0964   -0.6980   -0.5438 C.3       1 <0>        -0.0327
     13 H2          0.8378   -1.2332   -1.4694 H         1 <0>         0.0858
     14 C9          2.3754    0.1135   -0.7608 C.3       1 <0>        -0.1141
     15 C10         2.5489    1.0717    0.4245 C.3       1 <0>        -0.0738
     16 H3          2.5010    0.5174    1.3734 H         1 <0>         0.0732
     17 C11         3.9090    1.7660    0.3297 C.3       1 <0>        -0.0937
     18 C12         5.0226    0.7344    0.5209 C.3       1 <0>        -0.1499
     19 C13         4.0520    2.4220   -1.0451 C.3       1 <0>        -0.1524
     20 C14         1.3126   -1.6890    0.6017 C.3       1 <0>        -0.1331
     21 C15         2.3503   -2.7046    0.1982 C.2       1 <0>         0.5149
     22 O2          2.8510   -2.6544   -0.9053 O.2       1 <0>        -0.5409
     23 N3          2.7220   -3.6686    1.0636 N.am      1 <0>        -0.7385
     24 C16         3.7308   -4.6558    0.6714 C.3       1 <0>         0.1239
     25 C17         3.9679   -5.6297    1.8274 C.3       1 <0>         0.0464
     26 O3          2.7769   -6.3815    2.0687 O.3       1 <0>        -0.3892
     27 C18         2.8917   -7.3258    3.1351 C.3       1 <0>         0.0274
     28 C19        -1.4452   -0.3224   -0.3362 C.3       1 <0>        -0.1256
     29 H4         -2.0346    8.4932    4.1183 H         1 <0>         0.0744
     30 H5         -2.8364    7.2905    3.0518 H         1 <0>         0.0615
     31 H6         -1.5635    8.3709    2.3891 H         1 <0>         0.0616
     32 H7          0.1254    7.2827    3.8593 H         1 <0>         0.0625
     33 H8         -1.1475    6.2023    4.5220 H         1 <0>         0.0624
     34 H9         -1.2156    5.9783    1.5914 H         1 <0>         0.4129
     35 H10        -0.1392    4.1330    0.6504 H         1 <0>         0.4123
     36 H11         2.4256    3.3394    1.8484 H         1 <0>         0.0669
     37 H12         1.1527    2.2590    2.5111 H         1 <0>         0.0629
     38 H13        -0.7830    2.0462    0.4400 H         1 <0>         0.1055
     39 H14         3.2363   -0.5684   -0.8221 H         1 <0>         0.0895
     40 H15         2.2928    0.6848   -1.6972 H         1 <0>         0.0668
     41 H16         3.9834    2.5352    1.1125 H         1 <0>         0.0713
     42 H17         6.0004    1.2336    0.4527 H         1 <0>         0.0535
     43 H18         4.9482   -0.0348   -0.2619 H         1 <0>         0.0597
     44 H19         4.9197    0.2628    1.5093 H         1 <0>         0.0512
     45 H20         5.0299    2.9212   -1.1132 H         1 <0>         0.0522
     46 H21         3.2513    3.1637   -1.1825 H         1 <0>         0.0546
     47 H22         3.9776    1.6528   -1.8279 H         1 <0>         0.0602
     48 H23         1.6574   -1.1474    1.4949 H         1 <0>         0.0954
     49 H24         0.3657   -2.2017    0.8266 H         1 <0>         0.0936
     50 H25         2.2679   -3.7141    2.0644 H         1 <0>         0.4237
     51 H26         3.3769   -5.2115   -0.2095 H         1 <0>         0.0745
     52 H27         4.6717   -4.1412    0.4266 H         1 <0>         0.0813
     53 H28         4.7878   -6.3152    1.5670 H         1 <0>         0.0666
     54 H29         4.2353   -5.0656    2.7331 H         1 <0>         0.0581
     55 H30         1.9379   -7.8602    3.2559 H         1 <0>         0.0892
     56 H31         3.1365   -6.7972    4.0682 H         1 <0>         0.0435
     57 H32         3.6891   -8.0468    2.9021 H         1 <0>         0.0435
     58 H33        -1.4058   -1.3649   -0.6851 H         1 <0>         0.0612
     59 H34        -2.0040    0.2864   -1.0622 H         1 <0>         0.0652
     60 H35        -1.9485   -0.2816    0.6410 H         1 <0>         0.0644
@<TRIPOS>BOND
     1    1    2 1
     2    1   29 1
     3    1   30 1
     4    1   31 1
     5    2    3 1
     6    2   32 1
     7    2   33 1
     8    3    4 am
     9    3   34 1
    10    4    5 2
    11    4    6 am
    12    6    7 1
    13    6   35 1
    14    7    8 1
    15    7   36 1
    16    7   37 1
    17    8    9 1
    18    8   15 1
    19    8   10 1
    20   10   11 2
    21   10   38 1
    22   11   12 1
    23   11   28 1
    24   12   13 1
    25   12   14 1
    26   12   20 1
    27   14   15 1
    28   14   39 1
    29   14   40 1
    30   15   16 1
    31   15   17 1
    32   17   18 1
    33   17   19 1
    34   17   41 1
    35   18   42 1
    36   18   43 1
    37   18   44 1
    38   19   45 1
    39   19   46 1
    40   19   47 1
    41   20   21 1
    42   20   48 1
    43   20   49 1
    44   21   22 2
    45   21   23 am
    46   23   24 1
    47   23   50 1
    48   24   25 1
    49   24   51 1
    50   24   52 1
    51   25   26 1
    52   25   53 1
    53   25   54 1
    54   26   27 1
    55   27   55 1
    56   27   56 1
    57   27   57 1
    58   28   58 1
    59   28   59 1
    60   28   60 1
@<TRIPOS>MOLECULE
ZINC55152720
   48    49     0     0     0
SMALL
USER_CHARGES

@<TRIPOS>ATOM
      1 C1         -0.0465    1.5296    0.0909 C.3       1 <0>        -0.1529
      2 C2         -0.0226   -0.0000    0.0683 C.3       1 <0>         0.0562
      3 O1         -1.3623   -0.4974    0.0646 O.3       1 <0>        -0.3128
      4 C3         -1.5194   -1.8482    0.0451 C.ar      1 <0>         0.0930
      5 C4         -0.4089   -2.6759    0.0356 C.ar      1 <0>        -0.1991
      6 C5         -0.5705   -4.0509    0.0158 C.ar      1 <0>         0.0797
      7 C6         -1.8409   -4.6012    0.0053 C.ar      1 <0>        -0.1368
      8 C7         -2.9530   -3.7801    0.0142 C.ar      1 <0>        -0.1447
      9 C8         -2.7975   -2.4021    0.0404 C.ar      1 <0>         0.1887
     10 N1         -3.9237   -1.5688    0.0557 N.pl3     1 <0>        -0.7241
     11 C9         -5.2672   -2.1529    0.0507 C.3       1 <0>         0.1370
     12 H1         -5.2664   -3.0609   -0.5522 H         1 <0>         0.1090
     13 C10        -5.6809   -2.4927    1.4840 C.3       1 <0>        -0.1691
     14 C11        -6.2429   -1.1635   -0.5326 C.2       1 <0>         0.5114
     15 O2         -5.8543   -0.0774   -0.9072 O.2       1 <0>        -0.5083
     16 N2         -7.5474   -1.4856   -0.6379 N.am      1 <0>        -0.6674
     17 C12        -8.4688   -0.5340   -1.0887 C.ar      1 <0>         0.1573
     18 C13        -9.7547   -0.5075   -0.5630 C.ar      1 <0>        -0.1547
     19 C14       -10.6648    0.4320   -1.0072 C.ar      1 <0>        -0.0830
     20 C15       -10.3000    1.3478   -1.9755 C.ar      1 <0>        -0.1321
     21 C16        -9.0161    1.3266   -2.5050 C.ar      1 <0>         0.1587
     22 C17        -8.0977    0.3877   -2.0568 C.ar      1 <0>        -0.1456
     23 N3         -8.6474    2.2543   -3.4855 N.am      1 <0>        -0.6740
     24 C18        -9.1398    3.5083   -3.4458 C.2       1 <0>         0.5116
     25 O3         -9.9663    3.8091   -2.6107 O.2       1 <0>        -0.5247
     26 C19        -8.6635    4.5366   -4.4391 C.3       1 <0>        -0.1723
     27 F1          0.5135   -4.8571    0.0061 F         1 <0>        -0.1413
     28 H2          0.9753    1.9089    0.0937 H         1 <0>         0.0798
     29 H3         -0.5684    1.8979   -0.7924 H         1 <0>         0.0669
     30 H4         -0.5636    1.8717    0.9874 H         1 <0>         0.0667
     31 H5          0.4944   -0.3421   -0.8282 H         1 <0>         0.0628
     32 H6          0.4992   -0.3684    0.9515 H         1 <0>         0.0629
     33 H7          0.5831   -2.2489    0.0434 H         1 <0>         0.1404
     34 H8         -1.9633   -5.6741   -0.0102 H         1 <0>         0.1373
     35 H9         -3.9429   -4.2117    0.0057 H         1 <0>         0.1383
     36 H10        -3.8139   -0.6051    0.0696 H         1 <0>         0.4167
     37 H11        -4.9752   -3.2083    1.9059 H         1 <0>         0.0780
     38 H12        -5.6818   -1.5846    2.0869 H         1 <0>         0.0683
     39 H13        -6.6805   -2.9273    1.4803 H         1 <0>         0.0714
     40 H14        -7.8475   -2.3772   -0.4012 H         1 <0>         0.4141
     41 H15       -10.0431   -1.2224    0.1934 H         1 <0>         0.1282
     42 H16       -11.6637    0.4505   -0.5970 H         1 <0>         0.1321
     43 H17       -11.0140    2.0806   -2.3212 H         1 <0>         0.1404
     44 H18        -7.0974    0.3720   -2.4638 H         1 <0>         0.1422
     45 H19        -8.0374    1.9949   -4.1937 H         1 <0>         0.4125
     46 H20        -9.3002    4.5098   -5.3235 H         1 <0>         0.0987
     47 H21        -8.7107    5.5274   -3.9873 H         1 <0>         0.0989
     48 H22        -7.6350    4.3164   -4.7251 H         1 <0>         0.0836
@<TRIPOS>BOND
     1    1    2 1
     2    1   28 1
     3    1   29 1
     4    1   30 1
     5    2    3 1
     6    2   31 1
     7    2   32 1
     8    3    4 1
     9    4    9 ar
    10    4    5 ar
    11    5    6 ar
    12    5   33 1
    13    6    7 ar
    14    6   27 1
    15    7    8 ar
    16    7   34 1
    17    8    9 ar
    18    8   35 1
    19    9   10 1
    20   10   11 1
    21   10   36 1
    22   11   12 1
    23   11   13 1
    24   11   14 1
    25   13   37 1
    26   13   38 1
    27   13   39 1
    28   14   15 2
    29   14   16 am
    30   16   17 1
    31   16   40 1
    32   17   22 ar
    33   17   18 ar
    34   18   19 ar
    35   18   41 1
    36   19   20 ar
    37   19   42 1
    38   20   21 ar
    39   20   43 1
    40   21   22 ar
    41   21   23 1
    42   22   44 1
    43   23   24 am
    44   23   45 1
    45   24   25 2
    46   24   26 1
    47   26   46 1
    48   26   47 1
    49   26   48 1
@<TRIPOS>MOLECULE
ZINC14156472
   50    52     0     0     0
SMALL
USER_CHARGES

@<TRIPOS>ATOM
      1 C1          0.0179    1.9279    0.2056 C.3       1 <0>        -0.1044
      2 C2          0.0020    0.4317    0.0264 C.ar      1 <0>         0.2064
      3 C3         -0.0188   -0.1226   -1.2439 C.ar      1 <0>        -0.2586
      4 C4         -0.0324   -1.5035   -1.3639 C.ar      1 <0>         0.2094
      5 N1         -0.0253   -2.2461   -0.2693 N.ar      1 <0>        -0.5542
      6 C5         -0.0053   -1.6845    0.9298 C.ar      1 <0>         0.5515
      7 N2          0.0132   -0.3688    1.0793 N.ar      1 <0>        -0.4886
      8 N3          0.0011   -2.4947    2.0573 N.pl3     1 <0>        -0.6078
      9 C6          0.0217   -1.9314    3.3048 C.2       1 <0>         0.7062
     10 N4          0.0354   -0.6161    3.4359 N.2       1 <0>        -0.5863
     11 C7         -0.0286   -0.0633    4.6557 C.2       1 <0>         0.5675
     12 S1          1.2486   -0.3004    5.7709 S.2       1 <0>        -0.6773
     13 N5         -1.0982    0.6790    5.0039 N.pl3     1 <0>        -0.6263
     14 C8         -1.1681    1.2830    6.3368 C.3       1 <0>         0.0582
     15 C9         -2.5016    1.1979    7.0820 C.3       1 <0>        -0.1807
     16 C10        -2.0338    2.5338    6.5011 C.3       1 <0>        -0.1821
     17 N6          0.0281   -2.7279    4.4133 N.pl3     1 <0>        -0.7174
     18 C11         0.1397   -4.1816    4.2701 C.3       1 <0>         0.1332
     19 C12        -1.2575   -4.7892    4.1306 C.3       1 <0>        -0.1375
     20 C13        -1.1409   -6.3074    3.9810 C.3       1 <0>        -0.1174
     21 C14        -0.4524   -6.8902    5.2168 C.3       1 <0>        -0.1241
     22 C15         0.9448   -6.2826    5.3563 C.3       1 <0>        -0.1166
     23 C16         0.8282   -4.7644    5.5059 C.3       1 <0>        -0.1229
     24 C17        -0.0556   -2.1507   -2.7246 C.3       1 <0>        -0.1071
     25 H1          1.0493    2.2798    0.2311 H         1 <0>         0.0872
     26 H2         -0.5062    2.3990   -0.6259 H         1 <0>         0.0814
     27 H3         -0.4777    2.1871    1.1411 H         1 <0>         0.0818
     28 H4         -0.0245    0.5076   -2.1210 H         1 <0>         0.1487
     29 H5         -0.0089   -3.4599    1.9611 H         1 <0>         0.4347
     30 H6         -1.8218    0.8133    4.3721 H         1 <0>         0.4010
     31 H7         -0.2552    1.2213    6.9293 H         1 <0>         0.1681
     32 H8         -3.3270    0.6925    6.5805 H         1 <0>         0.0960
     33 H9         -2.4663    1.0801    8.1650 H         1 <0>         0.1106
     34 H10        -1.6907    3.2948    7.2020 H         1 <0>         0.1108
     35 H11        -2.5513    2.9073    5.6175 H         1 <0>         0.0977
     36 H12        -0.0413   -2.3314    5.2958 H         1 <0>         0.4281
     37 H13         0.7278   -4.4152    3.3825 H         1 <0>         0.0825
     38 H14        -1.8456   -4.5556    5.0181 H         1 <0>         0.0729
     39 H15        -1.7480   -4.3740    3.2501 H         1 <0>         0.0633
     40 H16        -2.1364   -6.7402    3.8816 H         1 <0>         0.0693
     41 H17        -0.5529   -6.5409    3.0934 H         1 <0>         0.0663
     42 H18        -1.0405   -6.6566    6.1044 H         1 <0>         0.0645
     43 H19        -0.3694   -7.9718    5.1103 H         1 <0>         0.0671
     44 H20         1.4353   -6.6978    6.2368 H         1 <0>         0.0717
     45 H21         1.5328   -6.5162    4.4688 H         1 <0>         0.0663
     46 H22         1.8236   -4.3316    5.6053 H         1 <0>         0.0786
     47 H23         0.2402   -4.5309    6.3934 H         1 <0>         0.0724
     48 H24         0.9663   -2.3157   -3.0659 H         1 <0>         0.0881
     49 H25        -0.5771   -3.1059   -2.6638 H         1 <0>         0.0833
     50 H26        -0.5729   -1.4985   -3.4284 H         1 <0>         0.0843
@<TRIPOS>BOND
     1    1    2 1
     2    1   25 1
     3    1   26 1
     4    1   27 1
     5    2    7 ar
     6    2    3 ar
     7    3    4 ar
     8    3   28 1
     9    4    5 ar
    10    4   24 1
    11    5    6 ar
    12    6    7 ar
    13    6    8 1
    14    8    9 1
    15    8   29 1
    16    9   10 2
    17    9   17 1
    18   10   11 1
    19   11   12 2
    20   11   13 1
    21   13   14 1
    22   13   30 1
    23   14   16 1
    24   14   15 1
    25   14   31 1
    26   15   16 1
    27   15   32 1
    28   15   33 1
    29   16   34 1
    30   16   35 1
    31   17   18 1
    32   17   36 1
    33   18   23 1
    34   18   19 1
    35   18   37 1
    36   19   20 1
    37   19   38 1
    38   19   39 1
    39   20   21 1
    40   20   40 1
    41   20   41 1
    42   21   22 1
    43   21   42 1
    44   21   43 1
    45   22   23 1
    46   22   44 1
    47   22   45 1
    48   23   46 1
    49   23   47 1
    50   24   48 1
    51   24   49 1
    52   24   50 1
@<TRIPOS>MOLECULE
ZINC67063301
   51    52     0     0     0
SMALL
USER_CHARGES

@<TRIPOS>ATOM
      1 C1         -0.0167    1.3776    0.0096 C.ar      1 <0>        -0.0886
      2 C2          1.1700    2.0871    0.0021 C.ar      1 <0>        -0.1274
      3 C3          2.3791    1.4169   -0.0135 C.ar      1 <0>        -0.1159
      4 C4          2.4040    0.0338   -0.0217 C.ar      1 <0>         0.0682
      5 C5          1.2125   -0.6803   -0.0137 C.ar      1 <0>         0.0974
      6 C6          0.0021   -0.0041    0.0020 C.ar      1 <0>        -0.1826
      7 O1          1.2332   -2.0397   -0.0216 O.3       1 <0>        -0.3073
      8 C7         -0.0300   -2.7078   -0.0127 C.3       1 <0>         0.0622
      9 C8          0.1935   -4.2213   -0.0236 C.3       1 <0>        -0.1328
     10 C9         -1.1590   -4.9366   -0.0139 C.3       1 <0>         0.1399
     11 N1         -0.9450   -6.3859   -0.0244 N.am      1 <0>        -0.7433
     12 C10        -2.0012   -7.2230   -0.0184 C.2       1 <0>         0.7143
     13 O2         -3.1316   -6.7755   -0.0044 O.2       1 <0>        -0.5678
     14 N2         -1.8044   -8.5563   -0.0280 N.am      1 <0>        -0.5322
     15 N3         -0.5018   -9.0720   -0.0442 N.am      1 <0>        -0.5350
     16 C11        -0.3050  -10.4053   -0.0538 C.2       1 <0>         0.5153
     17 O3         -1.2554  -11.1586   -0.0485 O.2       1 <0>        -0.5221
     18 C12         1.0961  -10.9600   -0.0712 C.3       1 <0>        -0.1286
     19 C13         1.0393  -12.4889   -0.0793 C.3       1 <0>        -0.0712
     20 C14         0.4244  -12.9834    1.2315 C.3       1 <0>        -0.1214
     21 C15         0.3676  -14.5123    1.2234 C.3       1 <0>        -0.1183
     22 C16         1.7833  -15.0745    1.0801 C.3       1 <0>        -0.1217
     23 C17         2.3981  -14.5801   -0.2308 C.3       1 <0>        -0.1196
     24 C18         2.4550  -13.0511   -0.2226 C.3       1 <0>        -0.1148
     25 F1          3.5853   -0.6215   -0.0378 F         1 <0>        -0.1321
     26 H1         -0.9596    1.9040    0.0260 H         1 <0>         0.1342
     27 H2          1.1524    3.1669    0.0081 H         1 <0>         0.1362
     28 H3          3.3047    1.9734   -0.0197 H         1 <0>         0.1435
     29 H4         -0.9256   -0.5570    0.0083 H         1 <0>         0.1387
     30 H5         -0.5824   -2.4285    0.8846 H         1 <0>         0.0708
     31 H6         -0.6004   -2.4183   -0.8953 H         1 <0>         0.0708
     32 H7          0.7458   -4.5006   -0.9208 H         1 <0>         0.0845
     33 H8          0.7638   -4.5107    0.8591 H         1 <0>         0.0845
     34 H9         -1.7113   -4.6573    0.8833 H         1 <0>         0.0760
     35 H10        -1.7294   -4.6472   -0.8965 H         1 <0>         0.0760
     36 H11        -0.0432   -6.7429   -0.0355 H         1 <0>         0.3931
     37 H12        -2.5645   -9.1589   -0.0238 H         1 <0>         0.4447
     38 H13         0.2583   -8.4695   -0.0485 H         1 <0>         0.4185
     39 H14         1.6141  -10.6109   -0.9645 H         1 <0>         0.1013
     40 H15         1.6321  -10.6210    0.8154 H         1 <0>         0.1008
     41 H16         0.4282  -12.8253   -0.9169 H         1 <0>         0.0810
     42 H17         1.0354  -12.6470    2.0691 H         1 <0>         0.0561
     43 H18        -0.5842  -12.5828    1.3336 H         1 <0>         0.0797
     44 H19        -0.0705  -14.8646    2.1572 H         1 <0>         0.0603
     45 H20        -0.2435  -14.8487    0.3858 H         1 <0>         0.0620
     46 H21         2.3943  -14.7381    1.9177 H         1 <0>         0.0605
     47 H22         1.7428  -16.1638    1.0743 H         1 <0>         0.0602
     48 H23         3.4067  -14.9806   -0.3328 H         1 <0>         0.0624
     49 H24         1.7871  -14.9165   -1.0684 H         1 <0>         0.0623
     50 H25         2.8930  -12.6989   -1.1565 H         1 <0>         0.0633
     51 H26         3.0660  -12.7147    0.6150 H         1 <0>         0.0640
@<TRIPOS>BOND
     1    1    6 ar
     2    1    2 ar
     3    1   26 1
     4    2    3 ar
     5    2   27 1
     6    3    4 ar
     7    3   28 1
     8    4    5 ar
     9    4   25 1
    10    5    6 ar
    11    5    7 1
    12    6   29 1
    13    7    8 1
    14    8    9 1
    15    8   30 1
    16    8   31 1
    17    9   10 1
    18    9   32 1
    19    9   33 1
    20   10   11 1
    21   10   34 1
    22   10   35 1
    23   11   12 am
    24   11   36 1
    25   12   13 2
    26   12   14 am
    27   14   15 1
    28   14   37 1
    29   15   16 am
    30   15   38 1
    31   16   17 2
    32   16   18 1
    33   18   19 1
    34   18   39 1
    35   18   40 1
    36   19   24 1
    37   19   20 1
    38   19   41 1
    39   20   21 1
    40   20   42 1
    41   20   43 1
    42   21   22 1
    43   21   44 1
    44   21   45 1
    45   22   23 1
    46   22   46 1
    47   22   47 1
    48   23   24 1
    49   23   48 1
    50   23   49 1
    51   24   50 1
    52   24   51 1
@<TRIPOS>MOLECULE
ZINC13626633
   44    46     0     0     0
SMALL
USER_CHARGES
N-(2-methoxyethyl)-N'-(2-phenyl-1H-indol-3-yl)oxamide
@<TRIPOS>ATOM
      1 C1          3.1345   10.8801    4.7050 C.3       1 <0>         0.0304
      2 O1          2.6043    9.5934    4.3803 O.3       1 <0>        -0.3900
      3 C2          2.6766    8.6483    5.4496 C.3       1 <0>         0.0454
      4 C3          2.0840    7.3140    4.9919 C.3       1 <0>         0.1196
      5 N1          2.9127    6.7530    3.9220 N.am      1 <0>        -0.6935
      6 C4          2.5810    5.5733    3.3609 C.2       1 <0>         0.5094
      7 O2          1.5956    4.9758    3.7420 O.2       1 <0>        -0.5163
      8 C5          3.4252    5.0019    2.2711 C.2       1 <0>         0.5089
      9 O3          4.4110    5.5997    1.8899 O.2       1 <0>        -0.5004
     10 N2          3.0935    3.8222    1.7100 N.am      1 <0>        -0.6202
     11 C6          3.9352    3.2397    0.7587 C.2       1 <0>         0.0556
     12 C7          5.1338    2.4388    1.0258 C.ar      1 <0>        -0.0949
     13 C8          5.7794    2.0272    2.1943 C.ar      1 <0>        -0.0663
     14 C9          6.9144    1.2712    2.1123 C.ar      1 <0>        -0.1404
     15 C10         7.4318    0.9082    0.8762 C.ar      1 <0>        -0.0931
     16 C11         6.8116    1.3036   -0.2888 C.ar      1 <0>        -0.1277
     17 C12         5.6544    2.0741   -0.2296 C.ar      1 <0>         0.1104
     18 N3          4.8290    2.6094   -1.1943 N.pl3     1 <0>        -0.5807
     19 H1          4.9542    2.5125   -2.1512 H         1 <0>         0.4210
     20 C13         3.7980    3.3043   -0.5960 C.2       1 <0>         0.1447
     21 C14         2.7180    4.0126   -1.3116 C.ar      1 <0>        -0.0440
     22 C15         2.3384    5.2969   -0.9151 C.ar      1 <0>        -0.0858
     23 C16         1.3287    5.9528   -1.5881 C.ar      1 <0>        -0.1163
     24 C17         0.6920    5.3410   -2.6536 C.ar      1 <0>        -0.1059
     25 C18         1.0626    4.0686   -3.0515 C.ar      1 <0>        -0.1177
     26 C19         2.0709    3.4013   -2.3879 C.ar      1 <0>        -0.1026
     27 H2          3.0426   11.5393    3.8418 H         1 <0>         0.0888
     28 H3          2.5799   11.3005    5.5439 H         1 <0>         0.0440
     29 H4          4.1855   10.7819    4.9769 H         1 <0>         0.0439
     30 H5          2.1125    9.0223    6.3040 H         1 <0>         0.0726
     31 H6          3.7180    8.5038    5.7370 H         1 <0>         0.0606
     32 H7          1.0716    7.4742    4.6212 H         1 <0>         0.0849
     33 H8          2.0576    6.6207    5.8326 H         1 <0>         0.0916
     34 H9          3.7002    7.2305    3.6175 H         1 <0>         0.4167
     35 H10         2.2704    3.3776    1.9664 H         1 <0>         0.4190
     36 H11         5.3824    2.3055    3.1593 H         1 <0>         0.1190
     37 H12         7.4127    0.9530    3.0161 H         1 <0>         0.1250
     38 H13         8.3298    0.3103    0.8274 H         1 <0>         0.1285
     39 H14         7.2223    1.0159   -1.2454 H         1 <0>         0.1242
     40 H15         2.8347    5.7756   -0.0839 H         1 <0>         0.1239
     41 H16         1.0375    6.9478   -1.2857 H         1 <0>         0.1286
     42 H17        -0.0982    5.8590   -3.1768 H         1 <0>         0.1272
     43 H18         0.5614    3.5971   -3.8839 H         1 <0>         0.1283
     44 H19         2.3597    2.4085   -2.7000 H         1 <0>         0.1238
@<TRIPOS>BOND
     1    1    2 1
     2    1   27 1
     3    1   28 1
     4    1   29 1
     5    2    3 1
     6    3    4 1
     7    3   30 1
     8    3   31 1
     9    4    5 1
    10    4   32 1
    11    4   33 1
    12    5    6 am
    13    5   34 1
    14    6    7 2
    15    6    8 1
    16    8    9 2
    17    8   10 am
    18   10   11 1
    19   10   35 1
    20   11   20 2
    21   11   12 1
    22   12   17 ar
    23   12   13 ar
    24   13   14 ar
    25   13   36 1
    26   14   15 ar
    27   14   37 1
    28   15   16 ar
    29   15   38 1
    30   16   17 ar
    31   16   39 1
    32   17   18 1
    33   18   19 1
    34   18   20 1
    35   20   21 1
    36   21   26 ar
    37   21   22 ar
    38   22   23 ar
    39   22   40 1
    40   23   24 ar
    41   23   41 1
    42   24   25 ar
    43   24   42 1
    44   25   26 ar
    45   25   43 1
    46   26   44 1
@<TRIPOS>MOLECULE
ZINC40451966
   38    38     0     0     0
SMALL
USER_CHARGES

@<TRIPOS>ATOM
      1 C1         -0.0187    1.5258    0.0104 C.3       1 <0>        -0.1665
      2 C2          0.0021   -0.0041    0.0020 C.3       1 <0>         0.1164
      3 N1          0.6878   -0.4765   -1.2033 N.am      1 <0>        -0.7304
      4 C3          0.8268   -1.7986   -1.4250 C.2       1 <0>         0.4874
      5 O1          0.3843   -2.5972   -0.6267 O.2       1 <0>        -0.5196
      6 C4          1.5322   -2.2846   -2.6649 C.3       1 <0>         0.0930
      7 N2          1.5521   -3.7495   -2.6730 N.pl3     1 <0>        -0.9714
      8 C5          0.4072   -4.4947   -3.2023 C.3       1 <0>         0.1196
      9 C6          0.5447   -4.6306   -4.7200 C.3       1 <0>        -0.1742
     10 S1          2.8687   -4.5629   -2.0838 S.o2      1 <0>         2.6863
     11 O2          2.8674   -5.8413   -2.7044 O.2       1 <0>        -0.9348
     12 O3          3.9717   -3.6719   -2.1770 O.2       1 <0>        -0.9434
     13 C7          2.5862   -4.8367   -0.3663 C.ar      1 <0>        -0.7194
     14 C8          3.0020   -3.8969    0.5605 C.ar      1 <0>         0.1235
     15 C9          2.7817   -4.1091    1.9085 C.ar      1 <0>        -0.2061
     16 C10         2.1419   -5.2667    2.3325 C.ar      1 <0>         0.2929
     17 C11         1.7252   -6.2081    1.4001 C.ar      1 <0>        -0.2074
     18 C12         1.9438   -5.9885    0.0530 C.ar      1 <0>         0.1138
     19 Cl1         1.4174   -7.1615   -1.1135 Cl        1 <0>        -0.0171
     20 N3          1.9184   -5.4840    3.6940 N.pl3     1 <0>        -0.8562
     21 Cl2         3.8017   -2.4504    0.0296 Cl        1 <0>        -0.0235
     22 H1          1.0039    1.9031    0.0027 H         1 <0>         0.0626
     23 H2         -0.5459    1.8868   -0.8726 H         1 <0>         0.0624
     24 H3         -0.5289    1.8773    0.9072 H         1 <0>         0.0737
     25 H4          0.5293   -0.3651    0.8851 H         1 <0>         0.0662
     26 H5         -1.0205   -0.3814    0.0098 H         1 <0>         0.0665
     27 H6          1.0417    0.1622   -1.8418 H         1 <0>         0.4015
     28 H7          1.0050   -1.9236   -3.5480 H         1 <0>         0.1172
     29 H8          2.5548   -1.9074   -2.6726 H         1 <0>         0.1227
     30 H9          0.3783   -5.4859   -2.7498 H         1 <0>         0.0849
     31 H10        -0.5137   -3.9610   -2.9672 H         1 <0>         0.0806
     32 H11        -0.3071   -5.1850   -5.1138 H         1 <0>         0.0707
     33 H12         0.5736   -3.6393   -5.1724 H         1 <0>         0.0593
     34 H13         1.4656   -5.1642   -4.9550 H         1 <0>         0.0660
     35 H14         3.1071   -3.3756    2.6314 H         1 <0>         0.1426
     36 H15         1.2277   -7.1093    1.7271 H         1 <0>         0.1448
     37 H16         2.2100   -4.8261    4.3444 H         1 <0>         0.4074
     38 H17         1.4714   -6.2927    3.9891 H         1 <0>         0.4078
@<TRIPOS>BOND
     1    1    2 1
     2    1   22 1
     3    1   23 1
     4    1   24 1
     5    2    3 1
     6    2   25 1
     7    2   26 1
     8    3    4 am
     9    3   27 1
    10    4    5 2
    11    4    6 1
    12    6    7 1
    13    6   28 1
    14    6   29 1
    15    7    8 1
    16    7   10 1
    17    8    9 1
    18    8   30 1
    19    8   31 1
    20    9   32 1
    21    9   33 1
    22    9   34 1
    23   10   11 2
    24   10   12 2
    25   10   13 1
    26   13   18 ar
    27   13   14 ar
    28   14   15 ar
    29   14   21 1
    30   15   16 ar
    31   15   35 1
    32   16   17 ar
    33   16   20 1
    34   17   18 ar
    35   17   36 1
    36   18   19 1
    37   20   37 1
    38   20   38 1
@<TRIPOS>MOLECULE
ZINC54505988
   48    49     0     0     0
SMALL
USER_CHARGES

@<TRIPOS>ATOM
      1 C1         -0.3654   -1.1635    0.8940 C.3       1 <0>        -0.1377
      2 C2          0.0420    0.0202    0.0143 C.3       1 <0>        -0.1213
      3 C3          0.7074   -0.4901   -1.2379 C.2       1 <0>         0.3819
      4 C4          2.0742   -0.6944   -1.2600 C.2       1 <0>        -0.4412
      5 C5          2.8896   -0.5765   -0.0377 C.2       1 <0>         0.5745
      6 O1          2.3782   -0.2945    1.0297 O.2       1 <0>        -0.4896
      7 N1          4.2180   -0.7902   -0.1344 N.am      1 <0>        -0.6136
      8 C6          4.7942   -1.1015   -1.3039 C.2       1 <0>         0.5550
      9 S1          6.4871   -1.3552   -1.3311 S.2       1 <0>        -0.5315
     10 N2          4.1154   -1.2252   -2.4530 N.am      1 <0>        -0.6137
     11 C7          2.7795   -1.0458   -2.5057 C.2       1 <0>         0.5716
     12 O2          2.1737   -1.1661   -3.5540 O.2       1 <0>        -0.5136
     13 N3         -0.0305   -0.7473   -2.3366 N.pl3     1 <0>        -0.6511
     14 C8         -1.4568   -0.4130   -2.3559 C.3       1 <0>         0.0914
     15 C9         -2.0541   -0.8044   -3.7089 C.3       1 <0>        -0.1348
     16 C10        -3.5436   -0.4553   -3.7290 C.3       1 <0>         0.0674
     17 O3         -4.1016   -0.8208   -4.9928 O.3       1 <0>        -0.3807
     18 C11        -5.4963   -0.5355   -5.1168 C.3       1 <0>         0.0920
     19 C12        -6.3079   -1.7431   -4.6437 C.3       1 <0>        -0.1415
     20 C13        -7.8012   -1.4376   -4.7765 C.3       1 <0>        -0.1182
     21 C14        -8.1331   -1.1419   -6.2405 C.3       1 <0>        -0.1242
     22 C15        -7.3215    0.0657   -6.7136 C.3       1 <0>        -0.1177
     23 C16        -5.8282   -0.2398   -6.5808 C.3       1 <0>        -0.1170
     24 H1         -1.0604   -1.8005    0.3469 H         1 <0>         0.0529
     25 H2          0.5208   -1.7388    1.1621 H         1 <0>         0.0698
     26 H3         -0.8467   -0.7944    1.7996 H         1 <0>         0.0760
     27 H4         -0.8441    0.5956   -0.2538 H         1 <0>         0.0877
     28 H5          0.7370    0.6572    0.5613 H         1 <0>         0.1266
     29 H6          4.7689   -0.7166    0.6606 H         1 <0>         0.4461
     30 H7          4.5953   -1.4529   -3.2647 H         1 <0>         0.4455
     31 H8          0.3829   -1.1537   -3.1143 H         1 <0>         0.4278
     32 H9         -1.9682   -0.9571   -1.5618 H         1 <0>         0.0887
     33 H10        -1.5809    0.6587   -2.2002 H         1 <0>         0.0883
     34 H11        -1.5427   -0.2603   -4.5030 H         1 <0>         0.0856
     35 H12        -1.9300   -1.8761   -3.8646 H         1 <0>         0.0844
     36 H13        -4.0551   -0.9994   -2.9350 H         1 <0>         0.0537
     37 H14        -3.6678    0.6164   -3.5734 H         1 <0>         0.0539
     38 H15        -5.7455    0.3318   -4.5054 H         1 <0>         0.0608
     39 H16        -6.0588   -2.6104   -5.2551 H         1 <0>         0.0717
     40 H17        -6.0715   -1.9537   -3.6007 H         1 <0>         0.0620
     41 H18        -8.3795   -2.2979   -4.4395 H         1 <0>         0.0666
     42 H19        -8.0504   -0.5703   -4.1651 H         1 <0>         0.0623
     43 H20        -7.8839   -2.0093   -6.8519 H         1 <0>         0.0646
     44 H21        -9.1970   -0.9243   -6.3351 H         1 <0>         0.0652
     45 H22        -7.5579    0.2763   -7.7566 H         1 <0>         0.0697
     46 H23        -7.5706    0.9330   -6.1022 H         1 <0>         0.0632
     47 H24        -5.2499    0.6205   -6.9179 H         1 <0>         0.0688
     48 H25        -5.5790   -1.1072   -7.1922 H         1 <0>         0.0718
@<TRIPOS>BOND
     1    1    2 1
     2    1   24 1
     3    1   25 1
     4    1   26 1
     5    2    3 1
     6    2   27 1
     7    2   28 1
     8    3    4 2
     9    3   13 1
    10    4   11 1
    11    4    5 1
    12    5    6 2
    13    5    7 am
    14    7    8 1
    15    7   29 1
    16    8    9 2
    17    8   10 1
    18   10   11 am
    19   10   30 1
    20   11   12 2
    21   13   14 1
    22   13   31 1
    23   14   15 1
    24   14   32 1
    25   14   33 1
    26   15   16 1
    27   15   34 1
    28   15   35 1
    29   16   17 1
    30   16   36 1
    31   16   37 1
    32   17   18 1
    33   18   23 1
    34   18   19 1
    35   18   38 1
    36   19   20 1
    37   19   39 1
    38   19   40 1
    39   20   21 1
    40   20   41 1
    41   20   42 1
    42   21   22 1
    43   21   43 1
    44   21   44 1
    45   22   23 1
    46   22   45 1
    47   22   46 1
    48   23   47 1
    49   23   48 1
@<TRIPOS>MOLECULE
ZINC65696344
   50    52     0     0     0
SMALL
USER_CHARGES

@<TRIPOS>ATOM
      1 C1         -0.0184    1.5028    0.0103 C.3       1 <0>        -0.0780
      2 C2          0.0021   -0.0041    0.0020 C.2       1 <0>        -0.1707
      3 C3          0.0085   -0.7966   -1.0814 C.2       1 <0>         0.0769
      4 N1          0.0278   -2.1101   -0.6986 N.pl3     1 <0>        -0.5924
      5 H1          0.0357   -2.8672   -1.3049 H         1 <0>         0.4150
      6 C4          0.0346   -2.1972    0.6756 C.ar      1 <0>         0.1056
      7 C5          0.0251   -0.8817    1.1747 C.ar      1 <0>        -0.1045
      8 C6          0.0348   -0.6595    2.5528 C.ar      1 <0>        -0.0461
      9 C7          0.0571   -1.7226    3.4112 C.ar      1 <0>        -0.1372
     10 C8          0.0706   -3.0221    2.9239 C.ar      1 <0>        -0.0801
     11 C9          0.0520   -3.2642    1.5675 C.ar      1 <0>        -0.1304
     12 C10         0.0675   -1.4821    4.8989 C.3       1 <0>         0.1863
     13 N2         -1.3101   -1.4228    5.3936 N.am      1 <0>        -0.7416
     14 C11        -1.5472   -1.2146    6.7039 C.2       1 <0>         0.7039
     15 O1         -0.6177   -1.0760    7.4754 O.2       1 <0>        -0.5889
     16 N3         -2.8146   -1.1601    7.1591 N.am      1 <0>        -0.7475
     17 C12        -3.0723   -0.9338    8.5834 C.3       1 <0>         0.1433
     18 C13        -4.5818   -0.9162    8.8321 C.3       1 <0>        -0.1463
     19 C14        -4.8510   -0.6799   10.3196 C.3       1 <0>         0.0933
     20 N4         -6.2964   -0.6631   10.5577 N.am      1 <0>        -0.4962
     21 C15        -6.9769    0.5086   10.4731 C.2       1 <0>         0.1312
     22 C16        -8.3124    0.5494   10.6893 C.2       1 <0>        -0.2317
     23 C17        -9.0066   -0.6273   11.0039 C.2       1 <0>        -0.0169
     24 C18        -8.3213   -1.8036   11.0880 C.2       1 <0>        -0.2439
     25 C19        -6.9358   -1.8109   10.8526 C.2       1 <0>         0.5109
     26 O2         -6.3110   -2.8573   10.9202 O.2       1 <0>        -0.5492
     27 C20        -0.0043   -0.3114   -2.5081 C.3       1 <0>        -0.0952
     28 H2          1.0042    1.8801    0.0026 H         1 <0>         0.0640
     29 H3         -0.5455    1.8639   -0.8728 H         1 <0>         0.0631
     30 H4         -0.5286    1.8543    0.9071 H         1 <0>         0.0628
     31 H5          0.0251    0.3489    2.9392 H         1 <0>         0.1233
     32 H6          0.0889   -3.8519    3.6148 H         1 <0>         0.1275
     33 H7          0.0639   -4.2790    1.1981 H         1 <0>         0.1220
     34 H8          0.5970   -2.2957    5.3948 H         1 <0>         0.0745
     35 H9          0.5706   -0.5387    5.1109 H         1 <0>         0.0738
     36 H10        -2.0517   -1.5334    4.7782 H         1 <0>         0.3971
     37 H11        -3.5562   -1.2706    6.5437 H         1 <0>         0.3966
     38 H12        -2.6173   -1.7343    9.1666 H         1 <0>         0.0722
     39 H13        -2.6436    0.0226    8.8827 H         1 <0>         0.0707
     40 H14        -5.0369   -0.1157    8.2489 H         1 <0>         0.0752
     41 H15        -5.0105   -1.8726    8.5328 H         1 <0>         0.0800
     42 H16        -4.3959   -1.4805   10.9028 H         1 <0>         0.1063
     43 H17        -4.4223    0.2765   10.6189 H         1 <0>         0.0971
     44 H18        -6.4469    1.4180   10.2311 H         1 <0>         0.1623
     45 H19        -8.8427    1.4876   10.6199 H         1 <0>         0.1458
     46 H20       -10.0722   -0.6025   11.1781 H         1 <0>         0.1353
     47 H21        -8.8386   -2.7205   11.3292 H         1 <0>         0.1483
     48 H22         1.0201   -0.1802   -2.8565 H         1 <0>         0.0785
     49 H23        -0.5107   -1.0441   -3.1365 H         1 <0>         0.0681
     50 H24        -0.5317    0.6409   -2.5633 H         1 <0>         0.0860
@<TRIPOS>BOND
     1    1    2 1
     2    1   28 1
     3    1   29 1
     4    1   30 1
     5    2    7 1
     6    2    3 2
     7    3    4 1
     8    3   27 1
     9    4    5 1
    10    4    6 1
    11    6   11 ar
    12    6    7 ar
    13    7    8 ar
    14    8    9 ar
    15    8   31 1
    16    9   10 ar
    17    9   12 1
    18   10   11 ar
    19   10   32 1
    20   11   33 1
    21   12   13 1
    22   12   34 1
    23   12   35 1
    24   13   14 am
    25   13   36 1
    26   14   15 2
    27   14   16 am
    28   16   17 1
    29   16   37 1
    30   17   18 1
    31   17   38 1
    32   17   39 1
    33   18   19 1
    34   18   40 1
    35   18   41 1
    36   19   20 1
    37   19   42 1
    38   19   43 1
    39   20   25 am
    40   20   21 1
    41   21   22 2
    42   21   44 1
    43   22   23 1
    44   22   45 1
    45   23   24 2
    46   23   46 1
    47   24   25 1
    48   24   47 1
    49   25   26 2
    50   27   48 1
    51   27   49 1
    52   27   50 1
@<TRIPOS>MOLECULE
ZINC67156574
   53    55     0     0     0
SMALL
USER_CHARGES

@<TRIPOS>ATOM
      1 C1         -0.0187    1.5258    0.0104 C.3       1 <0>        -0.1607
      2 C2          0.0021   -0.0041    0.0020 C.3       1 <0>         0.1253
      3 H1          0.5123   -0.3556   -0.8948 H         1 <0>         0.1175
      4 C3          0.7309   -0.5033    1.2229 C.2       1 <0>         0.5121
      5 O1          0.1587   -1.2128    2.0229 O.2       1 <0>        -0.5317
      6 N1          2.0187   -0.1613    1.4257 N.am      1 <0>        -0.7181
      7 C4          2.7273   -0.6466    2.6126 C.3       1 <0>         0.1385
      8 C5          2.5106    0.3246    3.7914 C.3       1 <0>        -0.1348
      9 C6          3.8709    0.3327    4.5320 C.3       1 <0>        -0.1256
     10 C7          4.8931    0.2697    3.3699 C.3       1 <0>        -0.1251
     11 C8          4.2421   -0.6815    2.3446 C.3       1 <0>        -0.1324
     12 N2         -1.3723   -0.5112    0.0124 N.am      1 <0>        -0.7080
     13 C9         -2.0508   -0.6427   -1.1446 C.2       1 <0>         0.5168
     14 O2         -1.5236   -0.3413   -2.1944 O.2       1 <0>        -0.5360
     15 C10        -3.4646   -1.1643   -1.1339 C.3       1 <0>         0.1016
     16 N3         -3.9776   -1.2130   -2.5053 N.am      1 <0>        -0.7166
     17 C11        -5.2305   -1.6502   -2.7411 C.2       1 <0>         0.5656
     18 O3         -5.9349   -2.0041   -1.8158 O.2       1 <0>        -0.5346
     19 C12        -5.7481   -1.6994   -4.1251 C.ar      1 <0>        -0.1374
     20 C13        -4.9406   -1.2994   -5.1911 C.ar      1 <0>        -0.0833
     21 C14        -5.4312   -1.3491   -6.4779 C.ar      1 <0>        -0.1148
     22 C15        -6.7221   -1.7939   -6.7202 C.ar      1 <0>        -0.0686
     23 C16        -7.5276   -2.1917   -5.6677 C.ar      1 <0>        -0.1062
     24 C17        -7.0437   -2.1510   -4.3734 C.ar      1 <0>        -0.0447
     25 C18        -8.8777   -2.6298   -6.1943 C.3       1 <0>        -0.0835
     26 C19        -8.9633   -2.0476   -7.6210 C.3       1 <0>        -0.1213
     27 C20        -7.4776   -1.9387   -8.0244 C.3       1 <0>        -0.0879
     28 H2          1.0039    1.9031    0.0027 H         1 <0>         0.0733
     29 H3         -0.5459    1.8868   -0.8726 H         1 <0>         0.0768
     30 H4         -0.5289    1.8773    0.9072 H         1 <0>         0.0664
     31 H5          2.4764    0.4061    0.7859 H         1 <0>         0.4026
     32 H6          2.3720   -1.6423    2.8781 H         1 <0>         0.0935
     33 H7          2.2701    1.3224    3.4243 H         1 <0>         0.0706
     34 H8          1.7212   -0.0420    4.4476 H         1 <0>         0.0717
     35 H9          3.9934    1.2519    5.1048 H         1 <0>         0.0703
     36 H10         3.9649   -0.5410    5.1768 H         1 <0>         0.0705
     37 H11         5.0374    1.2586    2.9348 H         1 <0>         0.0678
     38 H12         5.8424   -0.1369    3.7185 H         1 <0>         0.0700
     39 H13         4.6222   -1.6940    2.4809 H         1 <0>         0.0767
     40 H14         4.4501   -0.3374    1.3315 H         1 <0>         0.0720
     41 H15        -1.7940   -0.7522    0.8520 H         1 <0>         0.4149
     42 H16        -3.4790   -2.1662   -0.7048 H         1 <0>         0.1053
     43 H17        -4.0912   -0.5035   -0.5349 H         1 <0>         0.1048
     44 H18        -3.4155   -0.9306   -3.2437 H         1 <0>         0.4120
     45 H19        -3.9346   -0.9517   -5.0080 H         1 <0>         0.1297
     46 H20        -4.8067   -1.0394   -7.3027 H         1 <0>         0.1286
     47 H21        -7.6716   -2.4656   -3.5529 H         1 <0>         0.1352
     48 H22        -8.9365   -3.7178   -6.2256 H         1 <0>         0.0833
     49 H23        -9.6759   -2.2250   -5.5720 H         1 <0>         0.0786
     50 H24        -9.4964   -2.7274   -8.2855 H         1 <0>         0.0798
     51 H25        -9.4349   -1.0649   -7.6107 H         1 <0>         0.0744
     52 H26        -7.3196   -1.0619   -8.6524 H         1 <0>         0.0794
     53 H27        -7.1606   -2.8412   -8.5469 H         1 <0>         0.0853
@<TRIPOS>BOND
     1    1    2 1
     2    1   28 1
     3    1   29 1
     4    1   30 1
     5    2    3 1
     6    2    4 1
     7    2   12 1
     8    4    5 2
     9    4    6 am
    10    6    7 1
    11    6   31 1
    12    7   11 1
    13    7    8 1
    14    7   32 1
    15    8    9 1
    16    8   33 1
    17    8   34 1
    18    9   10 1
    19    9   35 1
    20    9   36 1
    21   10   11 1
    22   10   37 1
    23   10   38 1
    24   11   39 1
    25   11   40 1
    26   12   13 am
    27   12   41 1
    28   13   14 2
    29   13   15 1
    30   15   16 1
    31   15   42 1
    32   15   43 1
    33   16   17 am
    34   16   44 1
    35   17   18 2
    36   17   19 1
    37   19   24 ar
    38   19   20 ar
    39   20   21 ar
    40   20   45 1
    41   21   22 ar
    42   21   46 1
    43   22   27 1
    44   22   23 ar
    45   23   24 ar
    46   23   25 1
    47   24   47 1
    48   25   26 1
    49   25   48 1
    50   25   49 1
    51   26   27 1
    52   26   50 1
    53   26   51 1
    54   27   52 1
    55   27   53 1
@<TRIPOS>MOLECULE
ZINC09049776
   40    41     0     0     0
SMALL
USER_CHARGES
2-[N'-(4-fluorobenzoyl)hydrazino]-N-(5-methylisoxazol-3-yl)-butanamide
@<TRIPOS>ATOM
      1 C1          4.2828    4.9655    2.1141 C.3       1 <0>        -0.1636
      2 C2          4.1729    6.3336    1.4380 C.3       1 <0>        -0.1578
      3 C3          3.6850    6.1536   -0.0009 C.3       1 <0>         0.0591
      4 H1          4.3449    5.4618   -0.5244 H         1 <0>         0.1215
      5 C4          3.6939    7.4861   -0.7047 C.2       1 <0>         0.5329
      6 O1          2.6635    7.9416   -1.1537 O.2       1 <0>        -0.4774
      7 N1          4.8469    8.1717   -0.8352 N.am      1 <0>        -0.6316
      8 C5          4.8551    9.4052   -1.4867 C.2       1 <0>         0.2462
      9 C6          3.7420   10.0718   -2.0642 C.2       1 <0>        -0.2291
     10 C7          4.2681   11.2139   -2.5623 C.2       1 <0>        -0.0178
     11 O2          5.5792   11.1857   -2.2827 O.3       1 <0>         0.0978
     12 N2          5.8879   10.1820   -1.6832 N.2       1 <0>        -0.3891
     13 C8          3.5256   12.3053   -3.2892 C.3       1 <0>        -0.0763
     14 N3          2.3187    5.6142    0.0091 N.3       1 <0>        -0.4139
     15 N4          2.3315    4.2483    0.0021 N.am      1 <0>        -0.5741
     16 C9          1.1708    3.5634    0.0095 C.2       1 <0>         0.5639
     17 O3          0.1123    4.1613    0.0224 O.2       1 <0>        -0.5131
     18 C10         1.1847    2.0863    0.0020 C.ar      1 <0>        -0.1419
     19 C11        -0.0166    1.3742    0.0096 C.ar      1 <0>        -0.0261
     20 C12         0.0021   -0.0041    0.0020 C.ar      1 <0>        -0.1583
     21 C13         1.2107   -0.6834   -0.0132 C.ar      1 <0>         0.1285
     22 C14         2.4063    0.0187   -0.0204 C.ar      1 <0>        -0.1596
     23 C15         2.3991    1.3970   -0.0129 C.ar      1 <0>        -0.0594
     24 F1          1.2234   -2.0344   -0.0205 F         1 <0>        -0.1313
     25 H2          3.3052    4.4833    2.1196 H         1 <0>         0.0590
     26 H3          4.9910    4.3448    1.5653 H         1 <0>         0.0621
     27 H4          4.6303    5.0937    3.1393 H         1 <0>         0.0717
     28 H5          5.1504    6.8157    1.4326 H         1 <0>         0.0837
     29 H6          3.4646    6.9543    1.9868 H         1 <0>         0.0822
     30 H7          5.6711    7.8073   -0.4761 H         1 <0>         0.4182
     31 H8          2.7138    9.7429   -2.0981 H         1 <0>         0.1909
     32 H9          3.1664   13.0415   -2.5701 H         1 <0>         0.0908
     33 H10         4.1953   12.7888   -4.0005 H         1 <0>         0.0858
     34 H11         2.6781   11.8751   -3.8228 H         1 <0>         0.0945
     35 H12         1.7965    5.9669    0.7972 H         1 <0>         0.3579
     36 H13         3.1760    3.7713   -0.0082 H         1 <0>         0.3998
     37 H14        -0.9586    1.9024    0.0169 H         1 <0>         0.1500
     38 H15        -0.9264   -0.5558    0.0083 H         1 <0>         0.1466
     39 H16         3.3450   -0.5154   -0.0315 H         1 <0>         0.1444
     40 H17         3.3310    1.9429   -0.0188 H         1 <0>         0.1331
@<TRIPOS>BOND
     1    1    2 1
     2    1   25 1
     3    1   26 1
     4    1   27 1
     5    2    3 1
     6    2   28 1
     7    2   29 1
     8    3    4 1
     9    3    5 1
    10    3   14 1
    11    5    6 2
    12    5    7 am
    13    7    8 1
    14    7   30 1
    15    8   12 2
    16    8    9 1
    17    9   10 2
    18    9   31 1
    19   10   11 1
    20   10   13 1
    21   11   12 1
    22   13   32 1
    23   13   33 1
    24   13   34 1
    25   14   15 1
    26   14   35 1
    27   15   16 am
    28   15   36 1
    29   16   17 2
    30   16   18 1
    31   18   23 ar
    32   18   19 ar
    33   19   20 ar
    34   19   37 1
    35   20   21 ar
    36   20   38 1
    37   21   22 ar
    38   21   24 1
    39   22   23 ar
    40   22   39 1
    41   23   40 1
@<TRIPOS>MOLECULE
ZINC38737996
   39    40     0     0     0
SMALL
USER_CHARGES

@<TRIPOS>ATOM
      1 C1         -0.0187    1.5258    0.0104 C.3       1 <0>        -0.1625
      2 C2          0.0021   -0.0041    0.0020 C.3       1 <0>         0.1401
      3 C3          0.7421   -0.5109    1.2415 C.3       1 <0>        -0.1726
      4 N1         -1.3723   -0.5112    0.0124 N.pl3     1 <0>        -0.7070
      5 C4         -1.6506   -1.7676   -0.4985 C.ar      1 <0>         0.4332
      6 C5         -0.6147   -2.5442   -1.0152 C.ar      1 <0>        -0.2465
      7 C6         -0.8934   -3.7856   -1.5193 C.ar      1 <0>         0.0337
      8 C7         -2.2230   -4.2343   -1.4970 C.ar      1 <0>        -0.2523
      9 C8         -3.2097   -3.4034   -0.9645 C.ar      1 <0>         0.1976
     10 N2         -2.8978   -2.2175   -0.4845 N.ar      1 <0>        -0.5467
     11 C9         -2.5728   -5.5651   -2.0295 C.2       1 <0>         0.5765
     12 O1         -1.7062   -6.2818   -2.4920 O.2       1 <0>        -0.5361
     13 N3         -3.8528   -5.9863   -2.0034 N.am      1 <0>        -0.5090
     14 N4         -4.1848   -7.2499   -2.5090 N.pl3     1 <0>        -0.4820
     15 C10        -5.4993   -7.6825   -2.4822 C.ar      1 <0>         0.5779
     16 N5         -6.4320   -6.8866   -1.9797 N.ar      1 <0>        -0.5549
     17 C11        -7.6974   -7.2693   -1.9395 C.ar      1 <0>         0.2157
     18 C12        -8.0419   -8.5189   -2.4311 C.ar      1 <0>        -0.2422
     19 C13        -7.0415   -9.3257   -2.9495 C.ar      1 <0>         0.1454
     20 N6         -5.7959   -8.8802   -2.9644 N.ar      1 <0>        -0.5281
     21 C14        -7.3694  -10.6918   -3.4948 C.3       1 <0>         0.5250
     22 F1         -7.6673  -10.5905   -4.8580 F         1 <0>        -0.1639
     23 F2         -6.2708  -11.5400   -3.3193 F         1 <0>        -0.1588
     24 F3         -8.4745  -11.2129   -2.8135 F         1 <0>        -0.1634
     25 H1          1.0039    1.9031    0.0027 H         1 <0>         0.0775
     26 H2         -0.5459    1.8868   -0.8726 H         1 <0>         0.0646
     27 H3         -0.5289    1.8773    0.9072 H         1 <0>         0.0641
     28 H4          0.5123   -0.3556   -0.8948 H         1 <0>         0.0867
     29 H5          1.7647   -0.1336    1.2338 H         1 <0>         0.0709
     30 H6          0.2319   -0.1594    2.1383 H         1 <0>         0.0620
     31 H7          0.7568   -1.6008    1.2356 H         1 <0>         0.0609
     32 H8         -2.0874    0.0333    0.3772 H         1 <0>         0.4081
     33 H9          0.3983   -2.1696   -1.0179 H         1 <0>         0.1421
     34 H10        -0.1080   -4.4059   -1.9254 H         1 <0>         0.1480
     35 H11        -4.2366   -3.7372   -0.9421 H         1 <0>         0.1586
     36 H12        -4.5441   -5.4145   -1.6345 H         1 <0>         0.4324
     37 H13        -3.4935   -7.8217   -2.8779 H         1 <0>         0.4519
     38 H14        -8.4531   -6.6163   -1.5284 H         1 <0>         0.1887
     39 H15        -9.0676   -8.8564   -2.4101 H         1 <0>         0.1641
@<TRIPOS>BOND
     1    1    2 1
     2    1   25 1
     3    1   26 1
     4    1   27 1
     5    2    3 1
     6    2    4 1
     7    2   28 1
     8    3   29 1
     9    3   30 1
    10    3   31 1
    11    4    5 1
    12    4   32 1
    13    5   10 ar
    14    5    6 ar
    15    6    7 ar
    16    6   33 1
    17    7    8 ar
    18    7   34 1
    19    8    9 ar
    20    8   11 1
    21    9   10 ar
    22    9   35 1
    23   11   12 2
    24   11   13 am
    25   13   14 1
    26   13   36 1
    27   14   15 1
    28   14   37 1
    29   15   20 ar
    30   15   16 ar
    31   16   17 ar
    32   17   18 ar
    33   17   38 1
    34   18   19 ar
    35   18   39 1
    36   19   20 ar
    37   19   21 1
    38   21   22 1
    39   21   23 1
    40   21   24 1
@<TRIPOS>MOLECULE
ZINC12549256
   41    43     0     0     0
SMALL
USER_CHARGES

@<TRIPOS>ATOM
      1 C1         -0.7114    1.5275    0.0700 C.3       1 <0>         0.0234
      2 N1         -0.5189    0.0713    0.0872 N.3       1 <0>        -0.5299
      3 C2          0.0344   -0.3715    1.3740 C.3       1 <0>         0.1393
      4 C3         -0.9768   -0.1306    2.4651 C.2       1 <0>        -0.0128
      5 C4         -1.9158   -1.0027    2.8739 C.2       1 <0>        -0.1853
      6 C5         -2.6401   -0.3691    3.9097 C.2       1 <0>        -0.2157
      7 C6         -2.1004    0.8523    4.0719 C.2       1 <0>        -0.0387
      8 O1         -1.0896    0.9891    3.1982 O.3       1 <0>        -0.1783
      9 C7          0.3335   -0.3603   -1.0287 C.3       1 <0>         0.1230
     10 C8         -0.3797   -0.1083   -2.3321 C.ar      1 <0>         0.4423
     11 N2         -1.1590   -1.0427   -2.8484 N.ar      1 <0>        -0.6140
     12 C9         -1.7909   -0.8237   -3.9992 C.ar      1 <0>         0.6287
     13 N3         -1.6374    0.3361   -4.6290 N.ar      1 <0>        -0.6388
     14 C10        -0.8532    1.2727   -4.1070 C.ar      1 <0>         0.6277
     15 N4         -0.2285    1.0482   -2.9531 N.ar      1 <0>        -0.6273
     16 N5         -0.6901    2.4799   -4.7583 N.pl3     1 <0>        -0.6284
     17 C11        -1.4398    2.7631   -5.9042 C.ar      1 <0>         0.1585
     18 C12        -2.7614    2.3451   -5.9921 C.ar      1 <0>        -0.1083
     19 C13        -3.4992    2.6268   -7.1251 C.ar      1 <0>        -0.1019
     20 C14        -2.9234    3.3238   -8.1715 C.ar      1 <0>        -0.1333
     21 C15        -1.6077    3.7410   -8.0873 C.ar      1 <0>        -0.1002
     22 C16        -0.8662    3.4680   -6.9546 C.ar      1 <0>        -0.1431
     23 N6         -2.6040   -1.8000   -4.5376 N.pl3     1 <0>        -0.8031
     24 H1          0.2469    2.0225    0.2273 H         1 <0>         0.0355
     25 H2         -1.1219    1.8283   -0.8939 H         1 <0>         0.0722
     26 H3         -1.4020    1.8121    0.8638 H         1 <0>         0.0690
     27 H4          0.2672   -1.4351    1.3228 H         1 <0>         0.1098
     28 H5          0.9435    0.1894    1.5909 H         1 <0>         0.0576
     29 H6         -2.0844   -1.9961    2.4851 H         1 <0>         0.1487
     30 H7         -3.4681   -0.7857    4.4641 H         1 <0>         0.1479
     31 H8         -2.4227    1.5954    4.7863 H         1 <0>         0.2019
     32 H9          1.2674    0.2015   -1.0110 H         1 <0>         0.0723
     33 H10         0.5478   -1.4246   -0.9317 H         1 <0>         0.1095
     34 H11        -0.0555    3.1312   -4.4207 H         1 <0>         0.4264
     35 H12        -3.2115    1.8000   -5.1756 H         1 <0>         0.1281
     36 H13        -4.5269    2.3020   -7.1941 H         1 <0>         0.1246
     37 H14        -3.5024    3.5425   -9.0565 H         1 <0>         0.1234
     38 H15        -1.1608    4.2849   -8.9064 H         1 <0>         0.1267
     39 H16         0.1600    3.7980   -6.8876 H         1 <0>         0.1252
     40 H17        -2.7153   -2.6466   -4.0774 H         1 <0>         0.4199
     41 H18        -3.0642   -1.6397   -5.3763 H         1 <0>         0.4175
@<TRIPOS>BOND
     1    1    2 1
     2    1   24 1
     3    1   25 1
     4    1   26 1
     5    2    3 1
     6    2    9 1
     7    3    4 1
     8    3   27 1
     9    3   28 1
    10    4    8 1
    11    4    5 2
    12    5    6 1
    13    5   29 1
    14    6    7 2
    15    6   30 1
    16    7    8 1
    17    7   31 1
    18    9   10 1
    19    9   32 1
    20    9   33 1
    21   10   15 ar
    22   10   11 ar
    23   11   12 ar
    24   12   13 ar
    25   12   23 1
    26   13   14 ar
    27   14   15 ar
    28   14   16 1
    29   16   17 1
    30   16   34 1
    31   17   22 ar
    32   17   18 ar
    33   18   19 ar
    34   18   35 1
    35   19   20 ar
    36   19   36 1
    37   20   21 ar
    38   20   37 1
    39   21   22 ar
    40   21   38 1
    41   22   39 1
    42   23   40 1
    43   23   41 1
@<TRIPOS>MOLECULE
ZINC63701574
   46    46     0     0     0
SMALL
USER_CHARGES

@<TRIPOS>ATOM
      1 C1         -0.0187    1.5258    0.0104 C.3       1 <0>        -0.1866
      2 C2          0.0021   -0.0041    0.0020 C.3       1 <0>         0.1346
      3 C3          0.7421   -0.5109    1.2415 C.3       1 <0>        -0.1866
      4 C4         -1.4333   -0.5336    0.0129 C.3       1 <0>        -0.1414
      5 O1          0.6709   -0.4649   -1.1737 O.3       1 <0>        -0.3570
      6 C5          1.9522   -0.0848   -1.3367 C.2       1 <0>         0.6532
      7 O2          2.4879    0.6189   -0.5034 O.2       1 <0>        -0.5619
      8 N1          2.6407   -0.4850   -2.4240 N.am      1 <0>        -0.7101
      9 C6          4.0349   -0.0714   -2.6014 C.3       1 <0>         0.1265
     10 C7          4.5786   -0.6570   -3.9061 C.3       1 <0>         0.1079
     11 N2          5.9727   -0.2434   -4.0834 N.am      1 <0>        -0.7221
     12 C8          6.6612   -0.6436   -5.1708 C.2       1 <0>         0.5144
     13 O3          6.1266   -1.3460   -6.0025 O.2       1 <0>        -0.5317
     14 C9          8.0954   -0.2181   -5.3532 C.3       1 <0>         0.1008
     15 N3          8.6160   -0.7789   -6.6026 N.am      1 <0>        -0.7175
     16 C10         9.8869   -0.5294   -6.9752 C.2       1 <0>         0.5641
     17 O4         10.6013    0.1609   -6.2746 O.2       1 <0>        -0.5345
     18 C11        10.4123   -1.0953   -8.2360 C.ar      1 <0>        -0.1386
     19 C12         9.5929   -1.8835   -9.0455 C.ar      1 <0>        -0.0848
     20 C13        10.0891   -2.4081  -10.2210 C.ar      1 <0>        -0.1272
     21 C14        11.3961   -2.1548  -10.5977 C.ar      1 <0>        -0.0909
     22 C15        12.2138   -1.3746   -9.7996 C.ar      1 <0>        -0.1279
     23 C16        11.7280   -0.8388   -8.6247 C.ar      1 <0>        -0.0579
     24 H1          1.0039    1.9031    0.0027 H         1 <0>         0.0871
     25 H2         -0.5459    1.8868   -0.8726 H         1 <0>         0.0599
     26 H3         -0.5289    1.8773    0.9072 H         1 <0>         0.0716
     27 H4          0.2319   -0.1594    2.1383 H         1 <0>         0.0716
     28 H5          0.7568   -1.6008    1.2356 H         1 <0>         0.0599
     29 H6          1.7647   -0.1336    1.2338 H         1 <0>         0.0871
     30 H7         -1.9605   -0.1726   -0.8702 H         1 <0>         0.0673
     31 H8         -1.4185   -1.6235    0.0069 H         1 <0>         0.0672
     32 H9         -1.9435   -0.1821    0.9097 H         1 <0>         0.0820
     33 H10         2.2131   -1.0467   -3.0892 H         1 <0>         0.4101
     34 H11         4.0889    1.0165   -2.6411 H         1 <0>         0.0808
     35 H12         4.6309   -0.4344   -1.7640 H         1 <0>         0.0808
     36 H13         4.5246   -1.7449   -3.8664 H         1 <0>         0.0811
     37 H14         3.9826   -0.2940   -4.7434 H         1 <0>         0.0811
     38 H15         6.4003    0.3183   -3.4183 H         1 <0>         0.4092
     39 H16         8.1494    0.8698   -5.3930 H         1 <0>         0.1050
     40 H17         8.6914   -0.5812   -4.5159 H         1 <0>         0.1050
     41 H18         8.0459   -1.3297   -7.1616 H         1 <0>         0.4123
     42 H19         8.5727   -2.0826   -8.7522 H         1 <0>         0.1276
     43 H20         9.4561   -3.0182  -10.8483 H         1 <0>         0.1307
     44 H21        11.7799   -2.5682  -11.5188 H         1 <0>         0.1290
     45 H22        13.2331   -1.1809  -10.0992 H         1 <0>         0.1318
     46 H23        12.3658   -0.2260   -8.0050 H         1 <0>         0.1373
@<TRIPOS>BOND
     1    1    2 1
     2    1   24 1
     3    1   25 1
     4    1   26 1
     5    2    3 1
     6    2    4 1
     7    2    5 1
     8    3   27 1
     9    3   28 1
    10    3   29 1
    11    4   30 1
    12    4   31 1
    13    4   32 1
    14    5    6 1
    15    6    7 2
    16    6    8 am
    17    8    9 1
    18    8   33 1
    19    9   10 1
    20    9   34 1
    21    9   35 1
    22   10   11 1
    23   10   36 1
    24   10   37 1
    25   11   12 am
    26   11   38 1
    27   12   13 2
    28   12   14 1
    29   14   15 1
    30   14   39 1
    31   14   40 1
    32   15   16 am
    33   15   41 1
    34   16   17 2
    35   16   18 1
    36   18   23 ar
    37   18   19 ar
    38   19   20 ar
    39   19   42 1
    40   20   21 ar
    41   20   43 1
    42   21   22 ar
    43   21   44 1
    44   22   23 ar
    45   22   45 1
    46   23   46 1
@<TRIPOS>MOLECULE
ZINC66733388
   53    54     0     0     0
SMALL
USER_CHARGES

@<TRIPOS>ATOM
      1 C1         -0.0187    1.5258    0.0104 C.3       1 <0>        -0.1703
      2 C2          0.0021   -0.0041    0.0020 C.3       1 <0>         0.1259
      3 N1         -1.3723   -0.5112    0.0124 N.pl3     1 <0>        -0.3656
      4 C3         -2.1086   -0.7867    1.1093 C.2       1 <0>         0.1126
      5 C4         -3.3173   -1.2311    0.6937 C.2       1 <0>        -0.2693
      6 C5         -3.3197   -1.2270   -0.7050 C.2       1 <0>         0.0935
      7 N2         -2.1565   -0.7899   -1.1144 N.2       1 <0>        -0.2934
      8 C6         -4.4666   -1.6469   -1.5878 C.3       1 <0>        -0.0767
      9 C7         -4.4587   -1.6563    1.5811 C.3       1 <0>         0.2046
     10 N3         -5.3069   -0.4983    1.8742 N.am      1 <0>        -0.7188
     11 C8         -6.3958   -0.6410    2.6554 C.2       1 <0>         0.5092
     12 O1         -6.6735   -1.7281    3.1158 O.2       1 <0>        -0.5384
     13 C9         -7.2683    0.5502    2.9569 C.3       1 <0>         0.1202
     14 N4         -8.3779    0.1369    3.8195 N.am      1 <0>        -0.7364
     15 C10        -9.2925    1.0418    4.2210 C.2       1 <0>         0.7070
     16 O2         -9.1967    2.2011    3.8672 O.2       1 <0>        -0.5918
     17 N5        -10.3133    0.6616    5.0146 N.am      1 <0>        -0.7431
     18 C11       -11.3075    1.6452    5.4510 C.3       1 <0>         0.1454
     19 C12       -12.3500    0.9585    6.3357 C.3       1 <0>        -0.1056
     20 C13       -13.1912   -0.0244    5.4954 C.3       1 <0>        -0.1223
     21 C14       -14.6197    0.1016    6.0807 C.3       1 <0>        -0.1263
     22 C15       -14.7310    1.6157    6.3875 C.3       1 <0>        -0.1261
     23 C16       -13.3291    2.0014    6.9029 C.3       1 <0>        -0.1177
     24 C17        -1.6642   -0.6284    2.5405 C.3       1 <0>        -0.0981
     25 H1          1.0039    1.9031    0.0027 H         1 <0>         0.0794
     26 H2         -0.5459    1.8868   -0.8726 H         1 <0>         0.0661
     27 H3         -0.5289    1.8773    0.9072 H         1 <0>         0.0611
     28 H4          0.5123   -0.3556   -0.8948 H         1 <0>         0.0972
     29 H5          0.5293   -0.3651    0.8851 H         1 <0>         0.0941
     30 H6         -5.0988   -0.7840   -1.7972 H         1 <0>         0.0782
     31 H7         -4.0769   -2.0475   -2.5237 H         1 <0>         0.0746
     32 H8         -5.0536   -2.4129   -1.0812 H         1 <0>         0.0784
     33 H9         -5.0486   -2.4196    1.0737 H         1 <0>         0.0770
     34 H10        -4.0633   -2.0620    2.5123 H         1 <0>         0.0735
     35 H11        -5.0848    0.3712    1.5059 H         1 <0>         0.4040
     36 H12        -6.6784    1.3135    3.4643 H         1 <0>         0.0975
     37 H13        -7.6637    0.9559    2.0256 H         1 <0>         0.0983
     38 H14        -8.4543   -0.7880    4.1018 H         1 <0>         0.4079
     39 H15       -10.3897   -0.2633    5.2969 H         1 <0>         0.3978
     40 H16       -10.8133    2.4344    6.0175 H         1 <0>         0.0666
     41 H17       -11.7986    2.0768    4.5789 H         1 <0>         0.0683
     42 H18       -11.8569    0.4276    7.1500 H         1 <0>         0.0789
     43 H19       -13.1821    0.2669    4.4451 H         1 <0>         0.0695
     44 H20       -12.8191   -1.0422    5.6132 H         1 <0>         0.0651
     45 H21       -15.3662   -0.1996    5.3458 H         1 <0>         0.0665
     46 H22       -14.7162   -0.4857    6.9939 H         1 <0>         0.0670
     47 H23       -14.9707    2.1719    5.4813 H         1 <0>         0.0664
     48 H24       -15.4827    1.7949    7.1563 H         1 <0>         0.0660
     49 H25       -13.3117    1.9760    7.9924 H         1 <0>         0.0680
     50 H26       -13.0615    2.9966    6.5479 H         1 <0>         0.0691
     51 H27        -1.9128    0.3739    2.8894 H         1 <0>         0.0837
     52 H28        -2.1717   -1.3659    3.1623 H         1 <0>         0.0880
     53 H29        -0.5865   -0.7787    2.6050 H         1 <0>         0.0733
@<TRIPOS>BOND
     1    1    2 1
     2    1   25 1
     3    1   26 1
     4    1   27 1
     5    2    3 1
     6    2   28 1
     7    2   29 1
     8    3    7 1
     9    3    4 1
    10    4    5 2
    11    4   24 1
    12    5    6 1
    13    5    9 1
    14    6    7 2
    15    6    8 1
    16    8   30 1
    17    8   31 1
    18    8   32 1
    19    9   10 1
    20    9   33 1
    21    9   34 1
    22   10   11 am
    23   10   35 1
    24   11   12 2
    25   11   13 1
    26   13   14 1
    27   13   36 1
    28   13   37 1
    29   14   15 am
    30   14   38 1
    31   15   16 2
    32   15   17 am
    33   17   18 1
    34   17   39 1
    35   18   19 1
    36   18   40 1
    37   18   41 1
    38   19   23 1
    39   19   20 1
    40   19   42 1
    41   20   21 1
    42   20   43 1
    43   20   44 1
    44   21   22 1
    45   21   45 1
    46   21   46 1
    47   22   23 1
    48   22   47 1
    49   22   48 1
    50   23   49 1
    51   23   50 1
    52   24   51 1
    53   24   52 1
    54   24   53 1
@<TRIPOS>MOLECULE
ZINC10188451
   67    70     0     0     0
SMALL
USER_CHARGES
N'-cyclopentyl-N-[2-(3,4-dihydro-1H-isoquinolin-2-yl)-2-(4-dimethylaminophenyl)-ethyl]-oxamide
@<TRIPOS>ATOM
      1 C1         10.4778    4.5306    0.0335 C.3       1 <0>         0.0812
      2 N1          9.5342    4.2514    1.1188 N.pl3     1 <0>        -0.6226
      3 C2          9.7892    4.7736    2.4636 C.3       1 <0>         0.0787
      4 C3          8.3915    3.4873    0.8713 C.ar      1 <0>         0.2514
      5 C4          8.2046    2.8969   -0.3721 C.ar      1 <0>        -0.1939
      6 C5          7.0734    2.1424   -0.6135 C.ar      1 <0>        -0.0245
      7 C6          6.1273    1.9744    0.3809 C.ar      1 <0>        -0.2208
      8 C7          6.3074    2.5654    1.6181 C.ar      1 <0>        -0.0648
      9 C8          7.4391    3.3165    1.8680 C.ar      1 <0>        -0.1924
     10 C9          4.8941    1.1504    0.1138 C.3       1 <0>         0.0869
     11 H1          5.0387    0.5634   -0.7932 H         1 <0>         0.1502
     12 C10         3.6902    2.0775   -0.0653 C.3       1 <0>         0.0975
     13 N2          2.4960    1.2778   -0.3495 N.am      1 <0>        -0.7290
     14 C11         1.2892    1.8728   -0.4266 C.2       1 <0>         0.5111
     15 O1          1.1917    3.0709   -0.2607 O.2       1 <0>        -0.4906
     16 C12         0.0710    1.0570   -0.7166 C.2       1 <0>         0.5060
     17 O2          0.1685   -0.1411   -0.8825 O.2       1 <0>        -0.5187
     18 N3         -1.1351    1.6528   -0.7992 N.am      1 <0>        -0.6849
     19 C13        -2.3283    0.8540   -1.0894 C.3       1 <0>         0.1359
     20 C14        -2.5256    0.7335   -2.6147 C.3       1 <0>        -0.1358
     21 C15        -4.0615    0.7951   -2.8051 C.3       1 <0>        -0.1256
     22 C16        -4.4953    1.8409   -1.7482 C.3       1 <0>        -0.1266
     23 C17        -3.5808    1.5581   -0.5385 C.3       1 <0>        -0.1332
     24 C18         4.0924   -1.0338    0.7918 C.3       1 <0>        -0.0092
     25 C19         4.2053   -2.0459    1.9321 C.3       1 <0>        -0.1042
     26 C20         3.6434   -1.4565    3.2003 C.ar      1 <0>        -0.0897
     27 C21         3.3287   -2.3128    4.2448 C.ar      1 <0>        -0.1031
     28 C22         2.8200   -1.8134    5.4268 C.ar      1 <0>        -0.0931
     29 C23         2.6226   -0.4525    5.5700 C.ar      1 <0>        -0.1039
     30 C24         2.9333    0.4003    4.5302 C.ar      1 <0>        -0.0949
     31 C25         3.4436   -0.1000    3.3411 C.ar      1 <0>        -0.1295
     32 C26         3.7632    0.8696    2.2338 C.3       1 <0>         0.0285
     33 H2         10.1909    5.4545   -0.4688 H         1 <0>         0.0601
     34 H3         11.4822    4.6368    0.4435 H         1 <0>         0.0771
     35 H4         10.4625    3.7083   -0.6819 H         1 <0>         0.0743
     36 H5          9.0373    4.3877    3.1518 H         1 <0>         0.0797
     37 H6         10.7794    4.4594    2.7937 H         1 <0>         0.0679
     38 H7          9.7408    5.8624    2.4458 H         1 <0>         0.0640
     39 H8          8.9434    3.0275   -1.1490 H         1 <0>         0.1368
     40 H9          6.9273    1.6834   -1.5801 H         1 <0>         0.1335
     41 H10         5.5642    2.4361    2.3910 H         1 <0>         0.1218
     42 H11         7.5813    3.7741    2.8359 H         1 <0>         0.1363
     43 H12         3.8768    2.7592   -0.8950 H         1 <0>         0.1207
     44 H13         3.5343    2.6512    0.8483 H         1 <0>         0.1035
     45 H14         2.5740    0.3201   -0.4821 H         1 <0>         0.4095
     46 H15        -1.2130    2.6106   -0.6666 H         1 <0>         0.4145
     47 H16        -2.2312   -0.1367   -0.6453 H         1 <0>         0.0990
     48 H17        -2.0438    1.5654   -3.1285 H         1 <0>         0.0721
     49 H18        -2.1341   -0.2174   -2.9760 H         1 <0>         0.0745
     50 H19        -4.5155   -0.1741   -2.5985 H         1 <0>         0.0731
     51 H20        -4.3128    1.1342   -3.8101 H         1 <0>         0.0741
     52 H21        -5.5414    1.6981   -1.4773 H         1 <0>         0.0741
     53 H22        -4.3317    2.8516   -2.1222 H         1 <0>         0.0700
     54 H23        -4.0919    0.9088    0.1723 H         1 <0>         0.0809
     55 H24        -3.3006    2.4937   -0.0545 H         1 <0>         0.0742
     56 H25         3.0445   -0.9004    0.5232 H         1 <0>         0.1301
     57 H26         4.6522   -1.3916   -0.0723 H         1 <0>         0.1424
     58 H27         5.2535   -2.3026    2.0857 H         1 <0>         0.1061
     59 H28         3.6468   -2.9452    1.6724 H         1 <0>         0.1253
     60 H29         3.4829   -3.3758    4.1329 H         1 <0>         0.1352
     61 H30         2.5764   -2.4841    6.2375 H         1 <0>         0.1364
     62 H31         2.2264   -0.0575    6.4938 H         1 <0>         0.1369
     63 H32         2.7782    1.4631    4.6429 H         1 <0>         0.1327
     64 H33         4.2512    1.7486    2.6550 H         1 <0>         0.1394
     65 H34         2.8381    1.1723    1.7432 H         1 <0>         0.1433
     66 N4          4.6722    0.2410    1.2607 N.4       1 <0>        -0.3906
     67 H35         5.5728    0.0522    1.7164 H         1 <0>         0.4346
@<TRIPOS>BOND
     1    1    2 1
     2    1   33 1
     3    1   34 1
     4    1   35 1
     5    2    3 1
     6    2    4 1
     7    3   36 1
     8    3   37 1
     9    3   38 1
    10    4    9 ar
    11    4    5 ar
    12    5    6 ar
    13    5   39 1
    14    6    7 ar
    15    6   40 1
    16    7    8 ar
    17    7   10 1
    18    8    9 ar
    19    8   41 1
    20    9   42 1
    21   10   11 1
    22   10   12 1
    23   10   66 1
    24   12   13 1
    25   12   43 1
    26   12   44 1
    27   13   14 am
    28   13   45 1
    29   14   15 2
    30   14   16 1
    31   16   17 2
    32   16   18 am
    33   18   19 1
    34   18   46 1
    35   19   23 1
    36   19   20 1
    37   19   47 1
    38   20   21 1
    39   20   48 1
    40   20   49 1
    41   21   22 1
    42   21   50 1
    43   21   51 1
    44   22   23 1
    45   22   52 1
    46   22   53 1
    47   23   54 1
    48   23   55 1
    49   24   25 1
    50   24   56 1
    51   24   57 1
    52   24   66 1
    53   25   26 1
    54   25   58 1
    55   25   59 1
    56   26   31 ar
    57   26   27 ar
    58   27   28 ar
    59   27   60 1
    60   28   29 ar
    61   28   61 1
    62   29   30 ar
    63   29   62 1
    64   30   31 ar
    65   30   63 1
    66   31   32 1
    67   32   64 1
    68   32   65 1
    69   32   66 1
    70   66   67 1
@<TRIPOS>MOLECULE
ZINC31079353
   59    61     0     0     0
SMALL
USER_CHARGES
N-[[2-[4-(dimethylaminomethyl)phenyl]phenyl]methyl]-4-(methanesulfonamido)benzamide
@<TRIPOS>ATOM
      1 C1         -1.7294    9.0290   -7.1956 C.3       1 <0>        -0.0470
      2 N1         -2.5268    8.9912   -5.9624 N.4       1 <0>        -0.4007
      3 C2         -3.9059    9.4302   -6.2137 C.3       1 <0>        -0.0527
      4 C3         -2.5022    7.6514   -5.3605 C.3       1 <0>         0.0448
      5 C4         -3.1168    7.7070   -3.9857 C.ar      1 <0>        -0.1623
      6 C5         -4.4755    7.5004   -3.8294 C.ar      1 <0>        -0.0899
      7 C6         -5.0438    7.5507   -2.5727 C.ar      1 <0>        -0.1015
      8 C7         -4.2460    7.8096   -1.4600 C.ar      1 <0>         0.0023
      9 C8         -2.8787    8.0222   -1.6238 C.ar      1 <0>        -0.1050
     10 C9         -2.3200    7.9640   -2.8846 C.ar      1 <0>        -0.0885
     11 C10        -4.8512    7.8648   -0.1063 C.ar      1 <0>        -0.0599
     12 C11        -4.7113    9.0095    0.6762 C.ar      1 <0>        -0.1006
     13 C12        -5.2714    9.0532    1.9366 C.ar      1 <0>        -0.1071
     14 C13        -5.9748    7.9653    2.4219 C.ar      1 <0>        -0.1042
     15 C14        -6.1213    6.8288    1.6475 C.ar      1 <0>        -0.0956
     16 C15        -5.5652    6.7742    0.3853 C.ar      1 <0>        -0.0900
     17 C16        -5.7247    5.5347   -0.4569 C.3       1 <0>         0.1558
     18 N2         -4.4799    4.7627   -0.4304 N.am      1 <0>        -0.7313
     19 C17        -4.4202    3.5594   -1.0345 C.2       1 <0>         0.5619
     20 O1         -5.3995    3.1146   -1.6016 O.2       1 <0>        -0.5372
     21 C18        -3.1667    2.7820   -1.0078 C.ar      1 <0>        -0.1494
     22 C19        -3.1031    1.5338   -1.6340 C.ar      1 <0>        -0.0393
     23 C20        -1.9323    0.8112   -1.6077 C.ar      1 <0>        -0.1410
     24 C21        -0.8117    1.3223   -0.9587 C.ar      1 <0>         0.1772
     25 C22        -0.8734    2.5626   -0.3293 C.ar      1 <0>        -0.1673
     26 C23        -2.0398    3.2923   -0.3566 C.ar      1 <0>        -0.0616
     27 N3          0.3701    0.5900   -0.9343 N.pl3     1 <0>        -1.0725
     28 S1          1.8144    1.3382   -1.2451 S.o2      1 <0>         2.6100
     29 O2          1.8577    2.4330   -0.3402 O.2       1 <0>        -0.9497
     30 O3          2.7828    0.3007   -1.1739 O.2       1 <0>        -0.9444
     31 C24         1.6694    1.9417   -2.9496 C.3       1 <0>        -0.6730
     32 H1         -0.7035    8.6962   -6.9792 H         1 <0>         0.1238
     33 H2         -1.7067   10.0571   -7.5862 H         1 <0>         0.1253
     34 H3         -2.1809    8.3620   -7.9448 H         1 <0>         0.1192
     35 H4         -4.4794    9.3922   -5.2758 H         1 <0>         0.1239
     36 H5         -4.3726    8.7660   -6.9560 H         1 <0>         0.1191
     37 H6         -3.8984   10.4611   -6.5974 H         1 <0>         0.1247
     38 H7         -3.0757    6.9558   -5.9907 H         1 <0>         0.1321
     39 H8         -1.4616    7.3032   -5.2832 H         1 <0>         0.1365
     40 H9         -5.0930    7.2998   -4.6925 H         1 <0>         0.1313
     41 H10        -6.1049    7.3899   -2.4519 H         1 <0>         0.1366
     42 H11        -2.2565    8.2281   -0.7654 H         1 <0>         0.1372
     43 H12        -1.2596    8.1242   -3.0122 H         1 <0>         0.1331
     44 H13        -4.1620    9.8592    0.2985 H         1 <0>         0.1265
     45 H14        -5.1600    9.9382    2.5455 H         1 <0>         0.1313
     46 H15        -6.4110    8.0035    3.4091 H         1 <0>         0.1317
     47 H16        -6.6714    5.9823    2.0312 H         1 <0>         0.1317
     48 H17        -6.5450    4.9216   -0.0553 H         1 <0>         0.0821
     49 H18        -5.9556    5.8227   -1.4931 H         1 <0>         0.0786
     50 H19        -3.5939    5.1651    0.0826 H         1 <0>         0.4189
     51 H20        -3.9719    1.1371   -2.1382 H         1 <0>         0.1417
     52 H21        -1.8826   -0.1532   -2.0912 H         1 <0>         0.1389
     53 H22        -0.0038    2.9543    0.1774 H         1 <0>         0.1653
     54 H23        -2.0858    4.2563    0.1281 H         1 <0>         0.1289
     55 H24         0.3456   -0.4863   -0.7085 H         1 <0>         0.4605
     56 H25         2.5981    2.4568   -3.2364 H         1 <0>         0.1351
     57 H26         0.8246    2.6427   -3.0197 H         1 <0>         0.1267
     58 H27         1.4976    1.0916   -3.6262 H         1 <0>         0.1338
     59 H28        -2.0743    9.6922   -5.2455 H         1 <0>         0.4450
@<TRIPOS>BOND
     1    1    2 1
     2    1   32 1
     3    1   33 1
     4    1   34 1
     5    2    3 1
     6    2    4 1
     7    2   59 1
     8    3   35 1
     9    3   36 1
    10    3   37 1
    11    4    5 1
    12    4   38 1
    13    4   39 1
    14    5   10 ar
    15    5    6 ar
    16    6    7 ar
    17    6   40 1
    18    7    8 ar
    19    7   41 1
    20    8    9 ar
    21    8   11 1
    22    9   10 ar
    23    9   42 1
    24   10   43 1
    25   11   16 ar
    26   11   12 ar
    27   12   13 ar
    28   12   44 1
    29   13   14 ar
    30   13   45 1
    31   14   15 ar
    32   14   46 1
    33   15   16 ar
    34   15   47 1
    35   16   17 1
    36   17   18 1
    37   17   48 1
    38   17   49 1
    39   18   19 am
    40   18   50 1
    41   19   20 2
    42   19   21 1
    43   21   26 ar
    44   21   22 ar
    45   22   23 ar
    46   22   51 1
    47   23   24 ar
    48   23   52 1
    49   24   25 ar
    50   24   27 1
    51   25   26 ar
    52   25   53 1
    53   26   54 1
    54   27   28 1
    55   27   55 1
    56   28   29 2
    57   28   30 2
    58   28   31 1
    59   31   56 1
    60   31   57 1
    61   31   58 1
@<TRIPOS>MOLECULE
ZINC39634245
   69    74     0     0     0
SMALL
USER_CHARGES

@<TRIPOS>ATOM
      1 C1         -2.7667   -4.5908    5.8848 C.3       1 <0>        -0.1242
      2 C2         -2.1923   -4.7911    4.5060 C.ar      1 <0>        -0.0674
      3 C3         -1.5591   -3.7445    3.8622 C.ar      1 <0>        -0.1192
      4 C4         -1.0323   -3.9282    2.5975 C.ar      1 <0>        -0.0931
      5 C5         -1.1382   -5.1588    1.9767 C.ar      1 <0>        -0.1261
      6 C6         -1.7706   -6.2057    2.6209 C.ar      1 <0>        -0.0996
      7 C7         -2.2937   -6.0231    3.8873 C.ar      1 <0>        -0.1240
      8 C8         -0.5648   -5.3589    0.5975 C.3       1 <0>         0.1615
      9 N1          0.8253   -5.8081    0.7071 N.am      1 <0>        -0.7234
     10 C9          1.5443   -6.0526   -0.4063 C.2       1 <0>         0.5193
     11 O1          1.0405   -5.9006   -1.4990 O.2       1 <0>        -0.5183
     12 C10         2.9743   -6.5147   -0.2936 C.3       1 <0>        -0.1141
     13 H1          3.4606   -6.0375    0.5571 H         1 <0>         0.1140
     14 C11         3.7442   -6.2048   -1.5969 C.3       1 <0>         0.1055
     15 N2          4.6465   -7.3654   -1.7838 N.am      1 <0>        -0.6180
     16 C12         3.8308   -8.5354   -1.3793 C.3       1 <0>         0.1093
     17 C13         3.0330   -8.0452   -0.1546 C.3       1 <0>        -0.0732
     18 C14         3.7533   -8.4315    1.1337 C.3       1 <0>        -0.1351
     19 C15         3.7491   -9.9561    1.2776 C.3       1 <0>        -0.0115
     20 N3          2.3645  -10.4431    1.3024 N.4       1 <0>        -0.5046
     21 C16         1.7069  -10.1488    0.0236 C.3       1 <0>        -0.0077
     22 C17         1.6251   -8.6324   -0.1736 C.3       1 <0>        -0.1479
     23 C18         5.9209   -7.3587   -2.2224 C.2       1 <0>         0.5919
     24 O2          6.5056   -8.4084   -2.4072 O.2       1 <0>        -0.5123
     25 C19         6.6071   -6.0759   -2.4786 C.ar      1 <0>        -0.1230
     26 C20         5.9922   -5.0946   -3.2649 C.ar      1 <0>        -0.0598
     27 C21         6.6296   -3.8970   -3.5051 C.ar      1 <0>        -0.1227
     28 C22         7.8855   -3.6504   -2.9722 C.ar      1 <0>        -0.0188
     29 C23         8.5138   -4.6117   -2.1891 C.ar      1 <0>        -0.1733
     30 C24         7.8735   -5.8340   -1.9309 C.ar      1 <0>         0.0310
     31 C25         8.7562   -6.6622   -1.0718 C.ar      1 <0>        -0.0368
     32 C26         8.6029   -7.9364   -0.5414 C.ar      1 <0>        -0.0912
     33 C27         9.6034   -8.4849    0.2459 C.ar      1 <0>        -0.0921
     34 C28        10.7567   -7.7719    0.5088 C.ar      1 <0>        -0.1139
     35 C29        10.9251   -6.4992   -0.0130 C.ar      1 <0>        -0.0460
     36 C30         9.9304   -5.9381   -0.8039 C.ar      1 <0>        -0.1654
     37 C31         9.8264   -4.6331   -1.5003 C.2       1 <0>         0.4474
     38 O3         10.6538   -3.7444   -1.4957 O.2       1 <0>        -0.4064
     39 H2         -2.0081   -4.8245    6.6318 H         1 <0>         0.0750
     40 H3         -3.0824   -3.5539    5.9997 H         1 <0>         0.0718
     41 H4         -3.6248   -5.2490    6.0201 H         1 <0>         0.0705
     42 H5         -1.4763   -2.7830    4.3472 H         1 <0>         0.1277
     43 H6         -0.5382   -3.1103    2.0942 H         1 <0>         0.1255
     44 H7         -1.8537   -7.1670    2.1357 H         1 <0>         0.1197
     45 H8         -2.7845   -6.8421    4.3921 H         1 <0>         0.1250
     46 H9         -1.1488   -6.1107    0.0667 H         1 <0>         0.0796
     47 H10        -0.6002   -4.4175    0.0492 H         1 <0>         0.0817
     48 H11         1.2283   -5.9297    1.5811 H         1 <0>         0.4008
     49 H12         3.0532   -6.1218   -2.4359 H         1 <0>         0.1053
     50 H13         4.3226   -5.2875   -1.4876 H         1 <0>         0.0967
     51 H14         3.1548   -8.8245   -2.1840 H         1 <0>         0.0877
     52 H15         4.4744   -9.3708   -1.1033 H         1 <0>         0.0905
     53 H16         4.7817   -8.0723    1.0973 H         1 <0>         0.1184
     54 H17         3.2408   -7.9842    1.9853 H         1 <0>         0.0972
     55 H18         4.2758  -10.4019    0.4339 H         1 <0>         0.1343
     56 H19         4.2487  -10.2346    2.2055 H         1 <0>         0.1403
     57 H20         2.3628  -11.4400    1.4584 H         1 <0>         0.4347
     58 H21         2.2819  -10.5903   -0.7904 H         1 <0>         0.1338
     59 H22         0.7013  -10.5693    0.0272 H         1 <0>         0.1397
     60 H23         1.0362   -8.1921    0.6311 H         1 <0>         0.0995
     61 H24         1.1530   -8.4150   -1.1317 H         1 <0>         0.1248
     62 H25         5.0143   -5.2771   -3.6852 H         1 <0>         0.1397
     63 H26         6.1478   -3.1455   -4.1130 H         1 <0>         0.1472
     64 H27         8.3773   -2.7087   -3.1664 H         1 <0>         0.1446
     65 H28         7.7038   -8.5001   -0.7421 H         1 <0>         0.1381
     66 H29         9.4800   -9.4760    0.6568 H         1 <0>         0.1337
     67 H30        11.5302   -8.2079    1.1236 H         1 <0>         0.1389
     68 H31        11.8279   -5.9443    0.1952 H         1 <0>         0.1388
     69 H32         1.8625   -9.9876    2.0499 H         1 <0>         0.4278
@<TRIPOS>BOND
     1    1    2 1
     2    1   39 1
     3    1   40 1
     4    1   41 1
     5    2    7 ar
     6    2    3 ar
     7    3    4 ar
     8    3   42 1
     9    4    5 ar
    10    4   43 1
    11    5    6 ar
    12    5    8 1
    13    6    7 ar
    14    6   44 1
    15    7   45 1
    16    8    9 1
    17    8   46 1
    18    8   47 1
    19    9   10 am
    20    9   48 1
    21   10   11 2
    22   10   12 1
    23   12   13 1
    24   12   17 1
    25   12   14 1
    26   14   15 1
    27   14   49 1
    28   14   50 1
    29   15   16 1
    30   15   23 am
    31   16   17 1
    32   16   51 1
    33   16   52 1
    34   17   22 1
    35   17   18 1
    36   18   19 1
    37   18   53 1
    38   18   54 1
    39   19   20 1
    40   19   55 1
    41   19   56 1
    42   20   21 1
    43   20   57 1
    44   20   69 1
    45   21   22 1
    46   21   58 1
    47   21   59 1
    48   22   60 1
    49   22   61 1
    50   23   24 2
    51   23   25 1
    52   25   30 ar
    53   25   26 ar
    54   26   27 ar
    55   26   62 1
    56   27   28 ar
    57   27   63 1
    58   28   29 ar
    59   28   64 1
    60   29   37 1
    61   29   30 ar
    62   30   31 1
    63   31   36 ar
    64   31   32 ar
    65   32   33 ar
    66   32   65 1
    67   33   34 ar
    68   33   66 1
    69   34   35 ar
    70   34   67 1
    71   35   36 ar
    72   35   68 1
    73   36   37 1
    74   37   38 2
@<TRIPOS>MOLECULE
ZINC39668934
   70    74     0     0     0
SMALL
USER_CHARGES

@<TRIPOS>ATOM
      1 C1          0.5958    1.4256   -0.3787 C.3       1 <0>        -0.1492
      2 C2          0.0157    0.0674    0.0209 C.3       1 <0>        -0.0941
      3 C3          0.7406   -0.4505    1.2363 C.ar      1 <0>        -0.0447
      4 C4          1.8722   -1.2317    1.0825 C.ar      1 <0>        -0.1238
      5 C5          2.5405   -1.7090    2.1910 C.ar      1 <0>        -0.0539
      6 C6          2.0727   -1.4023    3.4698 C.ar      1 <0>        -0.1494
      7 C7          0.9305   -0.6138    3.6179 C.ar      1 <0>        -0.0912
      8 C8          0.2749   -0.1381    2.5012 C.ar      1 <0>        -0.1248
      9 C9          2.7835   -1.9108    4.6622 C.2       1 <0>         0.5911
     10 O1          3.9634   -2.1946    4.5914 O.2       1 <0>        -0.5280
     11 N1          2.1234   -2.0597    5.8278 N.am      1 <0>        -0.6205
     12 C10         0.6724   -1.8917    6.0778 C.3       1 <0>         0.1027
     13 C11         0.3119   -3.0269    7.0621 C.3       1 <0>        -0.1142
     14 H1         -0.0685   -3.8926    6.5200 H         1 <0>         0.1141
     15 C12         1.6359   -3.3735    7.7633 C.3       1 <0>        -0.0726
     16 C13         2.6839   -2.4350    7.1480 C.3       1 <0>         0.1084
     17 C14         2.0134   -4.8265    7.4912 C.3       1 <0>        -0.1343
     18 C15         3.3029   -5.1637    8.2451 C.3       1 <0>        -0.0112
     19 N2          3.1008   -4.9507    9.6834 N.4       1 <0>        -0.5043
     20 C16         2.8294   -3.5323    9.9464 C.3       1 <0>        -0.0078
     21 C17         1.5200   -3.1260    9.2642 C.3       1 <0>        -0.1473
     22 C18        -0.7061   -2.5482    8.0649 C.2       1 <0>         0.5205
     23 O2         -0.7894   -1.3671    8.3278 O.2       1 <0>        -0.5207
     24 N3         -1.5239   -3.4325    8.6696 N.am      1 <0>        -0.7211
     25 C19        -2.5134   -2.9672    9.6445 C.3       1 <0>         0.1278
     26 C20        -3.3060   -4.1626   10.1770 C.3       1 <0>         0.1269
     27 H2         -2.6231   -4.8636   10.6570 H         1 <0>         0.0733
     28 C21        -4.3173   -3.6818   11.1849 C.ar      1 <0>        -0.1260
     29 C22        -3.9252   -2.7414   12.1251 C.ar      1 <0>        -0.1105
     30 C23        -4.8239   -2.2813   13.0667 C.ar      1 <0>        -0.1191
     31 C24        -6.1208   -2.7604   13.0734 C.ar      1 <0>        -0.1061
     32 C25        -6.5131   -3.6956   12.1364 C.ar      1 <0>        -0.1157
     33 C26        -5.6123   -4.1559   11.1890 C.ar      1 <0>        -0.0655
     34 C27        -6.0803   -5.1675   10.1742 C.3       1 <0>        -0.1205
     35 C28        -4.8726   -5.8369    9.5160 C.3       1 <0>         0.0619
     36 O3         -3.9657   -4.8136    9.0916 O.3       1 <0>        -0.3708
     37 H3          1.6558    1.3149   -0.6075 H         1 <0>         0.0578
     38 H4          0.0715    1.8002   -1.2578 H         1 <0>         0.0641
     39 H5          0.4735    2.1294    0.4447 H         1 <0>         0.0571
     40 H6         -1.0442    0.1781    0.2497 H         1 <0>         0.0774
     41 H7          0.1381   -0.6363   -0.8025 H         1 <0>         0.0779
     42 H8          2.2329   -1.4685    0.0925 H         1 <0>         0.1331
     43 H9          3.4235   -2.3189    2.0696 H         1 <0>         0.1343
     44 H10         0.5634   -0.3729    4.6046 H         1 <0>         0.1334
     45 H11        -0.6065    0.4757    2.6144 H         1 <0>         0.1314
     46 H12         0.4748   -0.9197    6.5298 H         1 <0>         0.1029
     47 H13         0.1117   -2.0012    5.1495 H         1 <0>         0.1017
     48 H14         3.6335   -2.9556    7.0241 H         1 <0>         0.0906
     49 H15         2.8124   -1.5506    7.7721 H         1 <0>         0.0849
     50 H16         1.2110   -5.4809    7.8319 H         1 <0>         0.0965
     51 H17         2.1696   -4.9678    6.4218 H         1 <0>         0.1188
     52 H18         3.5663   -6.2061    8.0659 H         1 <0>         0.1400
     53 H19         4.1087   -4.5200    7.8924 H         1 <0>         0.1346
     54 H20         2.3186   -5.5053    9.9976 H         1 <0>         0.4273
     55 H21         2.7437   -3.3723   11.0212 H         1 <0>         0.1393
     56 H22         3.6465   -2.9273    9.5535 H         1 <0>         0.1337
     57 H23         1.3286   -2.0683    9.4449 H         1 <0>         0.1254
     58 H24         0.6997   -3.7191    9.6686 H         1 <0>         0.0975
     59 H25        -1.4572   -4.3771    8.4593 H         1 <0>         0.4041
     60 H26        -2.0041   -2.4717   10.4710 H         1 <0>         0.0887
     61 H27        -3.1944   -2.2647    9.1639 H         1 <0>         0.0846
     62 H28        -2.9121   -2.3672   12.1211 H         1 <0>         0.1228
     63 H29        -4.5142   -1.5486   13.7972 H         1 <0>         0.1272
     64 H30        -6.8255   -2.4042   13.8102 H         1 <0>         0.1282
     65 H31        -7.5260   -4.0703   12.1420 H         1 <0>         0.1273
     66 H32        -6.6883   -5.9240   10.6703 H         1 <0>         0.0900
     67 H33        -6.6773   -4.6667    9.4120 H         1 <0>         0.0900
     68 H34        -4.3793   -6.4908   10.2351 H         1 <0>         0.0577
     69 H35        -5.2004   -6.4173    8.6536 H         1 <0>         0.1059
     70 H36         3.9310   -5.2312   10.1835 H         1 <0>         0.4343
@<TRIPOS>BOND
     1    1    2 1
     2    1   37 1
     3    1   38 1
     4    1   39 1
     5    2    3 1
     6    2   40 1
     7    2   41 1
     8    3    8 ar
     9    3    4 ar
    10    4    5 ar
    11    4   42 1
    12    5    6 ar
    13    5   43 1
    14    6    7 ar
    15    6    9 1
    16    7    8 ar
    17    7   44 1
    18    8   45 1
    19    9   10 2
    20    9   11 am
    21   11   16 1
    22   11   12 1
    23   12   13 1
    24   12   46 1
    25   12   47 1
    26   13   14 1
    27   13   15 1
    28   13   22 1
    29   15   21 1
    30   15   16 1
    31   15   17 1
    32   16   48 1
    33   16   49 1
    34   17   18 1
    35   17   50 1
    36   17   51 1
    37   18   19 1
    38   18   52 1
    39   18   53 1
    40   19   20 1
    41   19   54 1
    42   19   70 1
    43   20   21 1
    44   20   55 1
    45   20   56 1
    46   21   57 1
    47   21   58 1
    48   22   23 2
    49   22   24 am
    50   24   25 1
    51   24   59 1
    52   25   26 1
    53   25   60 1
    54   25   61 1
    55   26   27 1
    56   26   36 1
    57   26   28 1
    58   28   33 ar
    59   28   29 ar
    60   29   30 ar
    61   29   62 1
    62   30   31 ar
    63   30   63 1
    64   31   32 ar
    65   31   64 1
    66   32   33 ar
    67   32   65 1
    68   33   34 1
    69   34   35 1
    70   34   66 1
    71   34   67 1
    72   35   36 1
    73   35   68 1
    74   35   69 1
@<TRIPOS>MOLECULE
ZINC39690319
   68    72     0     0     0
SMALL
USER_CHARGES

@<TRIPOS>ATOM
      1 C1          8.5910   -2.4123   -5.3549 C.2       1 <0>        -0.1819
      2 C2          8.7188   -3.6335   -6.0467 C.2       1 <0>        -0.1810
      3 C3          7.8308   -4.4963   -5.5124 C.2       1 <0>        -0.0204
      4 N1          7.1577   -3.8519   -4.5140 N.pl3     1 <0>        -0.4048
      5 C4          7.6295   -2.5736   -4.4231 C.2       1 <0>        -0.0169
      6 C5          6.1495   -4.4099   -3.7153 C.ar      1 <0>         0.1636
      7 C6          5.7622   -5.7295   -3.9052 C.ar      1 <0>        -0.1464
      8 C7          4.7690   -6.2766   -3.1165 C.ar      1 <0>        -0.0713
      9 C8          4.1607   -5.5114   -2.1385 C.ar      1 <0>        -0.1343
     10 C9          4.5441   -4.1967   -1.9473 C.ar      1 <0>        -0.0651
     11 C10         5.5406   -3.6458   -2.7291 C.ar      1 <0>        -0.1420
     12 C11         3.0774   -6.1113   -1.2797 C.3       1 <0>         0.1635
     13 N2          3.6778   -6.7164   -0.0882 N.am      1 <0>        -0.7272
     14 C12         2.8949   -7.3172    0.8298 C.2       1 <0>         0.5128
     15 O1          1.6934   -7.3568    0.6695 O.2       1 <0>        -0.5102
     16 C13         3.5125   -7.9397    2.0554 C.3       1 <0>        -0.1139
     17 H1          4.4329   -7.4198    2.3214 H         1 <0>         0.1159
     18 C14         2.5159   -7.9070    3.2357 C.3       1 <0>         0.1184
     19 N3          1.8526   -9.2318    3.2023 N.am      1 <0>        -0.6196
     20 C15         2.9400  -10.1800    2.8608 C.3       1 <0>         0.1026
     21 C16         3.7912   -9.4329    1.8149 C.3       1 <0>        -0.0722
     22 C17         5.2718   -9.7348    2.0257 C.3       1 <0>        -0.1348
     23 C18         5.5348  -11.2128    1.7241 C.3       1 <0>        -0.0097
     24 N4          5.1468  -11.5083    0.3396 N.4       1 <0>        -0.5051
     25 C19         3.7030  -11.3043    0.1699 C.3       1 <0>        -0.0089
     26 C20         3.3626   -9.8301    0.4057 C.3       1 <0>        -0.1483
     27 C21         0.5543   -9.5116    3.4313 C.2       1 <0>         0.5420
     28 O2         -0.2349   -8.6114    3.6256 O.2       1 <0>        -0.5096
     29 C22         0.0831  -10.9430    3.4458 C.3       1 <0>        -0.0959
     30 H2          0.6523  -11.5234    2.7197 H         1 <0>         0.0846
     31 C23        -1.4090  -10.9983    3.0944 C.3       1 <0>        -0.1051
     32 C24        -1.8162  -12.4654    2.9417 C.3       1 <0>        -0.0936
     33 C25        -1.3394  -13.2598    4.1223 C.2       1 <0>        -0.1482
     34 C26        -0.4275  -12.8560    4.9475 C.2       1 <0>        -0.1620
     35 C27         0.2780  -11.5345    4.8436 C.3       1 <0>        -0.0765
     36 H3          9.1618   -1.5133   -5.5349 H         1 <0>         0.1454
     37 H4          9.4025   -3.8403   -6.8568 H         1 <0>         0.1449
     38 H5          7.6780   -5.5199   -5.8210 H         1 <0>         0.1652
     39 H6          7.2914   -1.8218   -3.7253 H         1 <0>         0.1670
     40 H7          6.2367   -6.3275   -4.6691 H         1 <0>         0.1331
     41 H8          4.4670   -7.3030   -3.2640 H         1 <0>         0.1288
     42 H9          4.0667   -3.6012   -1.1832 H         1 <0>         0.1350
     43 H10         5.8430   -2.6203   -2.5761 H         1 <0>         0.1357
     44 H11         2.3789   -5.3308   -0.9780 H         1 <0>         0.0820
     45 H12         2.5457   -6.8755   -1.8466 H         1 <0>         0.0789
     46 H13         4.6387   -6.6847    0.0400 H         1 <0>         0.4001
     47 H14         3.0469   -7.7715    4.1778 H         1 <0>         0.0865
     48 H15         1.7840   -7.1119    3.0931 H         1 <0>         0.1002
     49 H16         3.5374  -10.4077    3.7437 H         1 <0>         0.0869
     50 H17         2.5275  -11.0939    2.4334 H         1 <0>         0.0838
     51 H18         5.8684   -9.1150    1.3562 H         1 <0>         0.0976
     52 H19         5.5433   -9.5204    3.0593 H         1 <0>         0.1226
     53 H20         6.5950  -11.4276    1.8577 H         1 <0>         0.1403
     54 H21         4.9505  -11.8319    2.4049 H         1 <0>         0.1330
     55 H22         5.6475  -10.8958   -0.2867 H         1 <0>         0.4282
     56 H23         3.4129  -11.5866   -0.8422 H         1 <0>         0.1387
     57 H24         3.1623  -11.9212    0.8877 H         1 <0>         0.1325
     58 H25         2.2880   -9.6830    0.2971 H         1 <0>         0.1239
     59 H26         3.8901   -9.2139   -0.3224 H         1 <0>         0.0965
     60 H27        -1.9908  -10.5377    3.8929 H         1 <0>         0.0796
     61 H28        -1.5846  -10.4699    2.1574 H         1 <0>         0.0720
     62 H29        -2.9020  -12.5339    2.8749 H         1 <0>         0.0817
     63 H30        -1.3740  -12.8703    2.0314 H         1 <0>         0.0732
     64 H31        -1.7849  -14.2284    4.2942 H         1 <0>         0.1085
     65 H32        -0.1539  -13.5122    5.7605 H         1 <0>         0.1099
     66 H33         1.3426  -11.6734    5.0319 H         1 <0>         0.0727
     67 H34        -0.1319  -10.8497    5.5860 H         1 <0>         0.0827
     68 H35         5.3773  -12.4667    0.1243 H         1 <0>         0.4343
@<TRIPOS>BOND
     1    1    5 2
     2    1    2 1
     3    1   36 1
     4    2    3 2
     5    2   37 1
     6    3    4 1
     7    3   38 1
     8    4    5 1
     9    4    6 1
    10    5   39 1
    11    6   11 ar
    12    6    7 ar
    13    7    8 ar
    14    7   40 1
    15    8    9 ar
    16    8   41 1
    17    9   10 ar
    18    9   12 1
    19   10   11 ar
    20   10   42 1
    21   11   43 1
    22   12   13 1
    23   12   44 1
    24   12   45 1
    25   13   14 am
    26   13   46 1
    27   14   15 2
    28   14   16 1
    29   16   17 1
    30   16   21 1
    31   16   18 1
    32   18   19 1
    33   18   47 1
    34   18   48 1
    35   19   20 1
    36   19   27 am
    37   20   21 1
    38   20   49 1
    39   20   50 1
    40   21   26 1
    41   21   22 1
    42   22   23 1
    43   22   51 1
    44   22   52 1
    45   23   24 1
    46   23   53 1
    47   23   54 1
    48   24   25 1
    49   24   55 1
    50   24   68 1
    51   25   26 1
    52   25   56 1
    53   25   57 1
    54   26   58 1
    55   26   59 1
    56   27   28 2
    57   27   29 1
    58   29   30 1
    59   29   35 1
    60   29   31 1
    61   31   32 1
    62   31   60 1
    63   31   61 1
    64   32   33 1
    65   32   62 1
    66   32   63 1
    67   33   34 2
    68   33   64 1
    69   34   35 1
    70   34   65 1
    71   35   66 1
    72   35   67 1
@<TRIPOS>MOLECULE
ZINC29575655
   46    47     0     0     0
SMALL
USER_CHARGES
3-(3-ethoxypropyl)-2-[(6-methyl-4-oxo-pyrido[1,2-a]pyrimidin-2-yl)methyl]isothiourea
@<TRIPOS>ATOM
      1 C1         -4.0933   -9.9807    2.7362 C.3       1 <0>        -0.1574
      2 C2         -4.5295   -9.0795    1.5793 C.3       1 <0>         0.0571
      3 O1         -3.5934   -8.0103    1.4294 O.3       1 <0>        -0.3875
      4 C3         -3.9098   -7.1051    0.3698 C.3       1 <0>         0.0615
      5 C4         -2.8462   -6.0074    0.3022 C.3       1 <0>        -0.1418
      6 C5         -3.1849   -5.0382   -0.8323 C.3       1 <0>         0.0835
      7 N1         -2.1665   -3.9871   -0.8970 N.pl3     1 <0>        -0.6531
      8 C6         -1.3928   -3.8923   -1.9427 C.cat     1 <0>         0.4679
      9 N2         -1.5938   -4.7183   -3.0243 N.pl3     1 <0>        -0.8019
     10 S1         -0.0901   -2.7061   -1.9702 S.3       1 <0>         0.1080
     11 C7         -0.3179   -1.9514   -0.3409 C.3       1 <0>        -0.1061
     12 C8          0.7171   -0.8752   -0.1367 C.2       1 <0>         0.2051
     13 C9          0.3556    0.4551   -0.2235 C.2       1 <0>        -0.3111
     14 C10         1.3346    1.4365   -0.0300 C.2       1 <0>         0.5104
     15 O2          1.0474    2.6211   -0.1002 O.2       1 <0>        -0.5038
     16 N3          2.6017    1.0528    0.2350 N.am      1 <0>        -0.4232
     17 C11         3.5658    1.9958    0.4243 C.2       1 <0>         0.1420
     18 C12         4.8415    1.6362    0.6908 C.2       1 <0>        -0.1705
     19 C13         5.1879    0.2803    0.7752 C.2       1 <0>        -0.0068
     20 C14         4.2307   -0.6712    0.5870 C.2       1 <0>        -0.1548
     21 C15         2.9087   -0.2772    0.3106 C.2       1 <0>         0.4092
     22 N4          1.9719   -1.2056    0.1253 N.2       1 <0>        -0.5488
     23 C16         3.2066    3.4567    0.3353 C.3       1 <0>        -0.1151
     24 H1         -4.8139  -10.8038    2.8516 H         1 <0>         0.0782
     25 H2         -4.0563   -9.3927    3.6651 H         1 <0>         0.0657
     26 H3         -3.0961  -10.3935    2.5236 H         1 <0>         0.0652
     27 H4         -4.5665   -9.6675    0.6504 H         1 <0>         0.0528
     28 H5         -5.5267   -8.6667    1.7919 H         1 <0>         0.0537
     29 H6         -3.9338   -7.6517   -0.5845 H         1 <0>         0.0544
     30 H7         -4.8940   -6.6510    0.5571 H         1 <0>         0.0585
     31 H8         -2.8222   -5.4608    1.2565 H         1 <0>         0.0924
     32 H9         -1.8620   -6.4615    0.1149 H         1 <0>         0.0863
     33 H10        -3.2088   -5.5848   -1.7866 H         1 <0>         0.0969
     34 H11        -4.1691   -4.5841   -0.6451 H         1 <0>         0.1204
     35 H12        -0.9412   -4.6383   -3.9062 H         1 <0>         0.4735
     36 H13        -2.4071   -5.4588   -3.0072 H         1 <0>         0.4517
     37 H14        -1.3234   -1.5097   -0.2788 H         1 <0>         0.1348
     38 H15        -0.2063   -2.7200    0.4381 H         1 <0>         0.1392
     39 H16        -0.6649    0.7334   -0.4416 H         1 <0>         0.1629
     40 H17         5.5955    2.3951    0.8387 H         1 <0>         0.1667
     41 H18         6.2067   -0.0081    0.9884 H         1 <0>         0.1616
     42 H19         4.4850   -1.7190    0.6491 H         1 <0>         0.1714
     43 H20         4.1044    4.0666    0.5143 H         1 <0>         0.0862
     44 H21         2.4452    3.6939    1.0929 H         1 <0>         0.0986
     45 H22         2.8081    3.6759   -0.6663 H         1 <0>         0.0983
     46 H23        -2.0543   -3.2778   -0.0637 H         1 <0>         0.4677
@<TRIPOS>BOND
     1    1    2 1
     2    1   24 1
     3    1   25 1
     4    1   26 1
     5    2    3 1
     6    2   27 1
     7    2   28 1
     8    3    4 1
     9    4    5 1
    10    4   29 1
    11    4   30 1
    12    5    6 1
    13    5   31 1
    14    5   32 1
    15    6    7 1
    16    6   33 1
    17    6   34 1
    18    7    8 2
    19    7   46 1
    20    8    9 1
    21    8   10 1
    22    9   35 1
    23    9   36 1
    24   10   11 1
    25   11   12 1
    26   11   37 1
    27   11   38 1
    28   12   22 1
    29   12   13 2
    30   13   14 1
    31   13   39 1
    32   14   15 2
    33   14   16 am
    34   16   21 1
    35   16   17 1
    36   17   18 2
    37   17   23 1
    38   18   19 1
    39   18   40 1
    40   19   20 2
    41   19   41 1
    42   20   21 1
    43   20   42 1
    44   21   22 2
    45   23   43 1
    46   23   44 1
    47   23   45 1
@<TRIPOS>MOLECULE
ZINC40904548
   42    44     0     0     0
SMALL
USER_CHARGES

@<TRIPOS>ATOM
      1 C1         -0.0173    1.4248    0.0099 C.3       1 <0>         0.0204
      2 O1          0.0021   -0.0041    0.0020 O.3       1 <0>        -0.3054
      3 C2          0.6058   -0.6071   -1.0557 C.ar      1 <0>         0.2075
      4 C3          1.1730    0.1616   -2.0625 C.ar      1 <0>        -0.2406
      5 C4          1.7868   -0.4509   -3.1381 C.ar      1 <0>        -0.0072
      6 C5          1.8373   -1.8298   -3.2146 C.ar      1 <0>        -0.2372
      7 C6          1.2717   -2.6026   -2.2106 C.ar      1 <0>         0.1945
      8 C7          0.6605   -1.9903   -1.1270 C.ar      1 <0>        -0.2452
      9 O2          1.3217   -3.9586   -2.2864 O.3       1 <0>        -0.3130
     10 C8          0.7190   -4.6907   -1.2174 C.3       1 <0>         0.0594
     11 C9          0.8734   -6.1908   -1.4760 C.3       1 <0>         0.0685
     12 H1          0.4800   -6.4572   -2.4570 H         1 <0>         0.1153
     13 C10         0.1868   -7.0169   -0.3625 C.3       1 <0>         0.0710
     14 N1          1.1165   -8.1518   -0.1975 N.am      1 <0>        -0.7367
     15 C11         2.2708   -7.8289   -0.8106 C.2       1 <0>         0.6427
     16 O3          3.2292   -8.5731   -0.8743 O.2       1 <0>        -0.5015
     17 O4          2.2500   -6.5963   -1.3462 O.3       1 <0>        -0.3210
     18 C12         2.5068   -2.4946   -4.3897 C.3       1 <0>         0.0652
     19 N2          1.4863   -2.9326   -5.3513 N.4       1 <0>        -0.4783
     20 C13         2.1389   -3.5807   -6.4967 C.3       1 <0>        -0.0819
     21 C14         1.9863   -2.9154   -7.8660 C.3       1 <0>        -0.1546
     22 C15         1.2371   -4.2135   -7.5585 C.3       1 <0>        -0.1561
     23 H2          1.0053    1.8021    0.0021 H         1 <0>         0.0653
     24 H3         -0.5445    1.7859   -0.8732 H         1 <0>         0.0644
     25 H4         -0.5275    1.7763    0.9067 H         1 <0>         0.1126
     26 H5          1.1342    1.2394   -2.0054 H         1 <0>         0.1444
     27 H6          2.2276    0.1490   -3.9206 H         1 <0>         0.1445
     28 H7          0.2237   -2.5901   -0.3423 H         1 <0>         0.1482
     29 H8          1.2083   -4.4317   -0.2784 H         1 <0>         0.0911
     30 H9         -0.3399   -4.4396   -1.1567 H         1 <0>         0.1021
     31 H10         0.1120   -6.4394    0.5590 H         1 <0>         0.0967
     32 H11        -0.7949   -7.3632   -0.6855 H         1 <0>         0.1122
     33 H12         0.9292   -8.9814    0.2690 H         1 <0>         0.4434
     34 H13         3.1807   -1.7867   -4.8722 H         1 <0>         0.1369
     35 H14         3.0744   -3.3584   -4.0436 H         1 <0>         0.1391
     36 H15         0.8625   -3.5879   -4.9046 H         1 <0>         0.4269
     37 H16         3.0853   -4.0760   -6.2801 H         1 <0>         0.1779
     38 H17         1.4017   -1.9968   -7.9169 H         1 <0>         0.1201
     39 H18         2.8325   -2.9728   -8.5506 H         1 <0>         0.1332
     40 H19         1.5905   -5.1249   -8.0407 H         1 <0>         0.1334
     41 H20         0.1596   -4.1489   -7.4070 H         1 <0>         0.1194
     42 H21         0.9608   -2.1330   -5.6717 H         1 <0>         0.4223
@<TRIPOS>BOND
     1    1    2 1
     2    1   23 1
     3    1   24 1
     4    1   25 1
     5    2    3 1
     6    3    8 ar
     7    3    4 ar
     8    4    5 ar
     9    4   26 1
    10    5    6 ar
    11    5   27 1
    12    6    7 ar
    13    6   18 1
    14    7    8 ar
    15    7    9 1
    16    8   28 1
    17    9   10 1
    18   10   11 1
    19   10   29 1
    20   10   30 1
    21   11   12 1
    22   11   17 1
    23   11   13 1
    24   13   14 1
    25   13   31 1
    26   13   32 1
    27   14   15 am
    28   14   33 1
    29   15   16 2
    30   15   17 1
    31   18   19 1
    32   18   34 1
    33   18   35 1
    34   19   20 1
    35   19   36 1
    36   19   42 1
    37   20   22 1
    38   20   21 1
    39   20   37 1
    40   21   22 1
    41   21   38 1
    42   21   39 1
    43   22   40 1
    44   22   41 1
@<TRIPOS>MOLECULE
ZINC44992956
   45    46     0     0     0
SMALL
USER_CHARGES

@<TRIPOS>ATOM
      1 C1         -0.2945    1.4786    0.2358 C.3       1 <0>        -0.1840
      2 C2          0.0021   -0.0041    0.0020 C.3       1 <0>         0.0298
      3 H1          0.5426   -0.1228   -0.9371 H         1 <0>         0.1352
      4 C3         -1.3132   -0.7829   -0.0646 C.3       1 <0>         0.0273
      5 N1         -1.0265   -2.2180   -0.1920 N.3       1 <0>        -0.6965
      6 C4         -2.2688   -2.9991   -0.2589 C.3       1 <0>         0.0310
      7 C5         -1.9303   -4.4854   -0.3910 C.3       1 <0>         0.1131
      8 H2         -1.2766   -4.6341   -1.2505 H         1 <0>         0.1135
      9 C6         -3.2191   -5.2866   -0.5858 C.3       1 <0>         0.0346
     10 O1         -2.8959   -6.6578   -0.8253 O.3       1 <0>        -0.2703
     11 C7         -3.9356   -7.5121   -1.0206 C.2       1 <0>         0.2552
     12 C8         -3.7516   -8.8600   -1.2555 C.2       1 <0>         0.0208
     13 N2         -4.8348   -9.5778   -1.4275 N.2       1 <0>        -0.4321
     14 S1         -6.0482   -8.5201   -1.2857 S.3       1 <0>         0.4939
     15 N3         -5.1908   -7.1142   -0.9938 N.2       1 <0>        -0.5212
     16 O2         -1.2675   -4.9301    0.7943 O.3       1 <0>        -0.5398
     17 N4          0.8212   -0.5198    1.1070 N.4       1 <0>        -0.3730
     18 C9          0.1469   -0.2480    2.3822 C.3       1 <0>        -0.0102
     19 C10         0.9560   -0.8543    3.5307 C.3       1 <0>        -0.1438
     20 C11         2.3545   -0.2305    3.5478 C.3       1 <0>        -0.1386
     21 C12         3.0198   -0.4557    2.1870 C.3       1 <0>        -0.1452
     22 C13         2.1343    0.1359    1.0882 C.3       1 <0>        -0.0108
     23 H3          0.6425    2.0335    0.2833 H         1 <0>         0.0855
     24 H4         -0.9023    1.8613   -0.5841 H         1 <0>         0.1043
     25 H5         -0.8350    1.5973    1.1749 H         1 <0>         0.0842
     26 H6         -1.8864   -0.6064    0.8455 H         1 <0>         0.1003
     27 H7         -1.8896   -0.4495   -0.9275 H         1 <0>         0.0809
     28 H8         -0.4413   -2.4001   -0.9936 H         1 <0>         0.3527
     29 H9         -2.8487   -2.8379    0.6498 H         1 <0>         0.0898
     30 H10        -2.8519   -2.6811   -1.1232 H         1 <0>         0.0593
     31 H11        -3.8339   -5.2095    0.3109 H         1 <0>         0.0760
     32 H12        -3.7689   -4.8886   -1.4387 H         1 <0>         0.0798
     33 H13        -2.7662   -9.3002   -1.2958 H         1 <0>         0.2109
     34 H14        -1.7919   -4.8274    1.6002 H         1 <0>         0.3770
     35 H15         0.0635    0.8293    2.5262 H         1 <0>         0.1261
     36 H16        -0.8494   -0.6898    2.3673 H         1 <0>         0.1283
     37 H17         0.4547   -0.6499    4.4768 H         1 <0>         0.1090
     38 H18         1.0398   -1.9317    3.3879 H         1 <0>         0.0891
     39 H19         2.2741    0.8392    3.7416 H         1 <0>         0.0800
     40 H20         2.9534   -0.6995    4.3284 H         1 <0>         0.0935
     41 H21         3.9937    0.0337    2.1725 H         1 <0>         0.1107
     42 H22         3.1464   -1.5247    2.0162 H         1 <0>         0.0880
     43 H23         2.6051   -0.0225    0.1180 H         1 <0>         0.1272
     44 H24         2.0085    1.2050    1.2598 H         1 <0>         0.1272
     45 H25         0.9421   -1.5156    0.9984 H         1 <0>         0.4314
@<TRIPOS>BOND
     1    1    2 1
     2    1   23 1
     3    1   24 1
     4    1   25 1
     5    2    3 1
     6    2    4 1
     7    2   17 1
     8    4    5 1
     9    4   26 1
    10    4   27 1
    11    5    6 1
    12    5   28 1
    13    6    7 1
    14    6   29 1
    15    6   30 1
    16    7    8 1
    17    7    9 1
    18    7   16 1
    19    9   10 1
    20    9   31 1
    21    9   32 1
    22   10   11 1
    23   11   15 2
    24   11   12 1
    25   12   13 2
    26   12   33 1
    27   13   14 1
    28   14   15 1
    29   16   34 1
    30   17   22 1
    31   17   18 1
    32   17   45 1
    33   18   19 1
    34   18   35 1
    35   18   36 1
    36   19   20 1
    37   19   37 1
    38   19   38 1
    39   20   21 1
    40   20   39 1
    41   20   40 1
    42   21   22 1
    43   21   41 1
    44   21   42 1
    45   22   43 1
    46   22   44 1
@<TRIPOS>MOLECULE
ZINC62357134
   47    48     0     0     0
SMALL
USER_CHARGES

@<TRIPOS>ATOM
      1 C1         -0.6510    1.1027   -5.7642 C.3       1 <0>        -0.1639
      2 C2         -1.4971    0.3895   -4.7077 C.3       1 <0>         0.1129
      3 N1         -0.7065    0.2122   -3.4871 N.pl3     1 <0>        -1.1217
      4 S1         -1.4566   -0.1855   -2.0653 S.o2      1 <0>         2.7867
      5 O1         -0.4332   -0.3108   -1.0874 O.2       1 <0>        -0.9676
      6 O2         -2.5470    0.7133   -1.9160 O.2       1 <0>        -0.9575
      7 N2         -2.1104   -1.6942   -2.2620 N.pl3     1 <0>        -1.1448
      8 C3         -1.2351   -2.8507   -2.4681 C.3       1 <0>         0.0938
      9 C4         -2.0301   -4.1385   -2.2432 C.3       1 <0>         0.1290
     10 H1         -1.3573   -4.9946   -2.2951 H         1 <0>         0.1753
     11 C5         -3.0896   -4.2671   -3.3071 C.2       1 <0>        -0.1066
     12 C6         -3.0107   -5.0375   -4.4069 C.2       1 <0>        -0.1279
     13 C7         -4.2167   -4.8556   -5.1219 C.2       1 <0>        -0.2111
     14 C8         -4.9606   -3.9849   -4.4163 C.2       1 <0>         0.0102
     15 O3         -4.2752   -3.6362   -3.3151 O.3       1 <0>        -0.1834
     16 N3         -2.6672   -4.0960   -0.9202 N.4       1 <0>        -0.3851
     17 C9         -3.4501   -5.3207   -0.7162 C.3       1 <0>        -0.0057
     18 C10        -4.1810   -5.2457    0.6260 C.3       1 <0>        -0.1420
     19 C11        -3.1541   -5.1009    1.7528 C.3       1 <0>        -0.1038
     20 C12        -2.2942   -3.8612    1.4902 C.3       1 <0>        -0.1429
     21 C13        -1.6332   -3.9875    0.1159 C.3       1 <0>        -0.0189
     22 C14        -3.8806   -4.9456    3.0903 C.3       1 <0>        -0.1541
     23 H2         -0.3433    2.0775   -5.3859 H         1 <0>         0.0682
     24 H3          0.2323    0.5041   -5.9871 H         1 <0>         0.0645
     25 H4         -1.2392    1.2346   -6.6724 H         1 <0>         0.0770
     26 H5         -2.3803    0.9880   -4.4848 H         1 <0>         0.0808
     27 H6         -1.8048   -0.5853   -5.0860 H         1 <0>         0.0640
     28 H7          0.2562    0.3278   -3.5117 H         1 <0>         0.4224
     29 H8         -3.0730   -1.8122   -2.2407 H         1 <0>         0.4171
     30 H9         -0.8476   -2.8362   -3.4868 H         1 <0>         0.1175
     31 H10        -0.4050   -2.8084   -1.7629 H         1 <0>         0.1176
     32 H11        -2.1843   -5.6727   -4.6898 H         1 <0>         0.1626
     33 H12        -4.4885   -5.3254   -6.0556 H         1 <0>         0.1641
     34 H13        -5.9438   -3.6295   -4.6872 H         1 <0>         0.2188
     35 H14        -4.1783   -5.4241   -1.5207 H         1 <0>         0.1289
     36 H15        -2.7828   -6.1826   -0.7185 H         1 <0>         0.1325
     37 H16        -4.8488   -4.3843    0.6292 H         1 <0>         0.0881
     38 H17        -4.7603   -6.1567    0.7764 H         1 <0>         0.1145
     39 H18        -2.5184   -5.9858    1.7826 H         1 <0>         0.0906
     40 H19        -2.9228   -2.9710    1.5113 H         1 <0>         0.0888
     41 H20        -1.5248   -3.7825    2.2583 H         1 <0>         0.1177
     42 H21        -1.0046   -4.8777    0.0959 H         1 <0>         0.1365
     43 H22        -1.0200   -3.1065   -0.0742 H         1 <0>         0.1373
     44 H23        -4.4977   -5.8253    3.2729 H         1 <0>         0.0677
     45 H24        -3.1488   -4.8425    3.8915 H         1 <0>         0.0685
     46 H25        -4.5129   -4.0582    3.0595 H         1 <0>         0.0622
     47 H26        -3.2792   -3.2954   -0.8684 H         1 <0>         0.4217
@<TRIPOS>BOND
     1    1    2 1
     2    1   23 1
     3    1   24 1
     4    1   25 1
     5    2    3 1
     6    2   26 1
     7    2   27 1
     8    3    4 1
     9    3   28 1
    10    4    5 2
    11    4    6 2
    12    4    7 1
    13    7    8 1
    14    7   29 1
    15    8    9 1
    16    8   30 1
    17    8   31 1
    18    9   10 1
    19    9   11 1
    20    9   16 1
    21   11   15 1
    22   11   12 2
    23   12   13 1
    24   12   32 1
    25   13   14 2
    26   13   33 1
    27   14   15 1
    28   14   34 1
    29   16   21 1
    30   16   17 1
    31   16   47 1
    32   17   18 1
    33   17   35 1
    34   17   36 1
    35   18   19 1
    36   18   37 1
    37   18   38 1
    38   19   20 1
    39   19   22 1
    40   19   39 1
    41   20   21 1
    42   20   40 1
    43   20   41 1
    44   21   42 1
    45   21   43 1
    46   22   44 1
    47   22   45 1
    48   22   46 1
@<TRIPOS>MOLECULE
ZINC66819727
   58    59     0     0     0
SMALL
USER_CHARGES

@<TRIPOS>ATOM
      1 C1          0.2126    1.7737   -0.0514 C.3       1 <0>        -0.1612
      2 C2          0.1410    0.2459   -0.0097 C.3       1 <0>         0.1260
      3 H1         -0.9022   -0.0681    0.0251 H         1 <0>         0.1175
      4 C3          0.7956   -0.3215   -1.2428 C.2       1 <0>         0.5175
      5 O1          1.7505   -1.0616   -1.1364 O.2       1 <0>        -0.5226
      6 N1          0.3199   -0.0065   -2.4638 N.am      1 <0>        -0.7318
      7 C4          0.9563   -0.5580   -3.6626 C.3       1 <0>         0.1235
      8 C5          0.2282   -0.0472   -4.9075 C.3       1 <0>        -0.1644
      9 C6          0.8928   -0.6232   -6.1594 C.3       1 <0>        -0.0128
     10 N2          0.1175   -0.2386   -7.3464 N.4       1 <0>        -0.3646
     11 C7          0.6263   -0.9925   -8.5087 C.3       1 <0>        -0.0040
     12 C8         -0.4767   -1.0841   -9.5333 C.3       1 <0>        -0.1495
     13 C9         -0.3497    0.0212  -10.5982 C.3       1 <0>        -0.1315
     14 C10         0.0530    1.3730   -9.9749 C.3       1 <0>        -0.1397
     15 C11        -0.6679    1.6455   -8.6795 C.3       1 <0>        -0.1350
     16 C12         0.1997    1.1459   -7.5054 C.3       1 <0>        -0.0390
     17 N3          0.8382   -0.2432    1.1823 N.am      1 <0>        -0.7181
     18 C13         0.1903   -0.3096    2.3623 C.2       1 <0>         0.5265
     19 O2         -0.9699    0.0357    2.4373 O.2       1 <0>        -0.5310
     20 C14         0.9075   -0.8128    3.5885 C.3       1 <0>        -0.1081
     21 C15         1.3764   -2.2519    3.3533 C.3       1 <0>        -0.1476
     22 C16         2.0337   -2.7813    4.6306 C.3       1 <0>         0.0612
     23 O3          1.1030   -2.7013    5.7120 O.3       1 <0>        -0.3794
     24 C17         0.6656   -1.3736    6.0085 C.3       1 <0>         0.0588
     25 C18        -0.0466   -0.7876    4.7866 C.3       1 <0>        -0.1366
     26 H2          1.2558    2.0877   -0.0861 H         1 <0>         0.0662
     27 H3         -0.3061    2.1376   -0.9383 H         1 <0>         0.0693
     28 H4         -0.2609    2.1841    0.8405 H         1 <0>         0.0804
     29 H5         -0.4438    0.5855   -2.5489 H         1 <0>         0.4063
     30 H6          1.9995   -0.2440   -3.6973 H         1 <0>         0.0808
     31 H7          0.9053   -1.6465   -3.6329 H         1 <0>         0.0804
     32 H8         -0.8150   -0.3612   -4.8727 H         1 <0>         0.0957
     33 H9          0.2792    1.0412   -4.9372 H         1 <0>         0.0971
     34 H10         1.9066   -0.2322   -6.2452 H         1 <0>         0.1359
     35 H11         0.9277   -1.7101   -6.0848 H         1 <0>         0.1377
     36 H12         1.4834   -0.4729   -8.9371 H         1 <0>         0.1337
     37 H13         0.9217   -1.9941   -8.1963 H         1 <0>         0.1351
     38 H14        -0.4290   -2.0571  -10.0221 H         1 <0>         0.1088
     39 H15        -1.4389   -0.9859   -9.0307 H         1 <0>         0.0817
     40 H16         0.4055   -0.2729  -11.3271 H         1 <0>         0.0806
     41 H17        -1.3068    0.1358  -11.1071 H         1 <0>         0.0819
     42 H18         1.1267    1.3693   -9.7873 H         1 <0>         0.0692
     43 H19        -0.1773    2.1702  -10.6816 H         1 <0>         0.0867
     44 H20        -0.8393    2.7170   -8.5761 H         1 <0>         0.1091
     45 H21        -1.6231    1.1203   -8.6763 H         1 <0>         0.0871
     46 H22        -0.1346    1.6286   -6.5871 H         1 <0>         0.1308
     47 H23         1.2383    1.4203   -7.6904 H         1 <0>         0.1281
     48 H24         1.7661   -0.5194    1.1224 H         1 <0>         0.4110
     49 H25         1.7682   -0.1764    3.7943 H         1 <0>         0.1021
     50 H26         0.5206   -2.8768    3.0982 H         1 <0>         0.0784
     51 H27         2.0987   -2.2709    2.5372 H         1 <0>         0.0795
     52 H28         2.3311   -3.8195    4.4830 H         1 <0>         0.0999
     53 H29         2.9131   -2.1806    4.8628 H         1 <0>         0.0549
     54 H30        -0.0225   -1.3977    6.8535 H         1 <0>         0.1013
     55 H31         1.5272   -0.7544    6.2587 H         1 <0>         0.0535
     56 H32        -0.3420    0.2406    4.9954 H         1 <0>         0.0824
     57 H33        -0.9312   -1.3829    4.5603 H         1 <0>         0.0817
     58 H34        -0.8480   -0.4903   -7.1970 H         1 <0>         0.4188
@<TRIPOS>BOND
     1    1    2 1
     2    1   26 1
     3    1   27 1
     4    1   28 1
     5    2    3 1
     6    2    4 1
     7    2   17 1
     8    4    5 2
     9    4    6 am
    10    6    7 1
    11    6   29 1
    12    7    8 1
    13    7   30 1
    14    7   31 1
    15    8    9 1
    16    8   32 1
    17    8   33 1
    18    9   10 1
    19    9   34 1
    20    9   35 1
    21   10   16 1
    22   10   11 1
    23   10   58 1
    24   11   12 1
    25   11   36 1
    26   11   37 1
    27   12   13 1
    28   12   38 1
    29   12   39 1
    30   13   14 1
    31   13   40 1
    32   13   41 1
    33   14   15 1
    34   14   42 1
    35   14   43 1
    36   15   16 1
    37   15   44 1
    38   15   45 1
    39   16   46 1
    40   16   47 1
    41   17   18 am
    42   17   48 1
    43   18   19 2
    44   18   20 1
    45   20   25 1
    46   20   21 1
    47   20   49 1
    48   21   22 1
    49   21   50 1
    50   21   51 1
    51   22   23 1
    52   22   52 1
    53   22   53 1
    54   23   24 1
    55   24   25 1
    56   24   54 1
    57   24   55 1
    58   25   56 1
    59   25   57 1
@<TRIPOS>MOLECULE
ZINC08861022
   59    62     0     0     0
SMALL
USER_CHARGES
N-(4-methyl-2,5-dioxo-4-phenethyl-imidazolidin-1-yl)-4-(phenylsulfamoyl)benzamide
@<TRIPOS>ATOM
      1 C1         11.5879   -2.9543    1.4009 C.3       1 <0>        -0.1525
      2 C2         10.8182   -1.7120    0.9483 C.3       1 <0>         0.1359
      3 C3         10.5805   -1.7478   -0.5484 C.2       1 <0>         0.5318
      4 O1          9.9548   -2.5789   -1.1708 O.2       1 <0>        -0.4431
      5 N1         11.2088   -0.6630   -1.0431 N.am      1 <0>        -0.3763
      6 C4         11.8042    0.0458   -0.0771 C.2       1 <0>         0.7081
      7 O2         12.4333    1.0661   -0.2778 O.2       1 <0>        -0.5211
      8 N2         11.6306   -0.4989    1.1444 N.am      1 <0>        -0.7101
      9 N3         11.2359   -0.3203   -2.4013 N.am      1 <0>        -0.5004
     10 C5         10.4742    0.6946   -2.8555 C.2       1 <0>         0.5655
     11 O3          9.7637    1.3125   -2.0868 O.2       1 <0>        -0.4953
     12 C6         10.5027    1.0562   -4.2887 C.ar      1 <0>        -0.0689
     13 C7         11.3217    0.3524   -5.1730 C.ar      1 <0>        -0.1054
     14 C8         11.3397    0.6915   -6.5102 C.ar      1 <0>        -0.0216
     15 C9         10.5565    1.7338   -6.9732 C.ar      1 <0>        -0.6505
     16 C10         9.7464    2.4390   -6.1010 C.ar      1 <0>        -0.0174
     17 C11         9.7151    2.1067   -4.7624 C.ar      1 <0>        -0.0714
     18 S1         10.5905    2.1648   -8.6814 S.o2      1 <0>         2.6885
     19 O4         10.8910    0.9733   -9.3949 O.2       1 <0>        -0.9467
     20 O5          9.4176    2.9272   -8.9313 O.2       1 <0>        -0.9403
     21 N4         11.8750    3.1861   -8.9032 N.pl3     1 <0>        -1.0601
     22 C12        11.9021    4.4246   -8.2580 C.ar      1 <0>         0.1145
     23 C13        11.1078    5.4670   -8.7185 C.ar      1 <0>        -0.1031
     24 C14        11.1334    6.6888   -8.0753 C.ar      1 <0>        -0.1111
     25 C15        11.9564    6.8784   -6.9803 C.ar      1 <0>        -0.1070
     26 C16        12.7524    5.8444   -6.5224 C.ar      1 <0>        -0.1134
     27 C17        12.7277    4.6184   -7.1578 C.ar      1 <0>        -0.1111
     28 C18         9.4912   -1.5988    1.7015 C.3       1 <0>        -0.1109
     29 C19         9.7670   -1.3862    3.1913 C.3       1 <0>        -0.0776
     30 C20         8.4600   -1.2747    3.9332 C.ar      1 <0>        -0.0873
     31 C21         7.8559   -2.4086    4.4434 C.ar      1 <0>        -0.1150
     32 C22         6.6543   -2.3070    5.1193 C.ar      1 <0>        -0.1180
     33 C23         6.0619   -1.0702    5.2938 C.ar      1 <0>        -0.1209
     34 C24         6.6662    0.0637    4.7840 C.ar      1 <0>        -0.1174
     35 C25         7.8654   -0.0385    4.1039 C.ar      1 <0>        -0.1152
     36 H1         10.9910   -3.8443    1.2016 H         1 <0>         0.0897
     37 H2         12.5288   -3.0180    0.8543 H         1 <0>         0.0717
     38 H3         11.7924   -2.8858    2.4694 H         1 <0>         0.0892
     39 H4         11.9714   -0.1596    1.9868 H         1 <0>         0.4453
     40 H5         11.8028   -0.8134   -3.0147 H         1 <0>         0.4280
     41 H6         11.9369   -0.4586   -4.8120 H         1 <0>         0.1382
     42 H7         11.9701    0.1452   -7.1962 H         1 <0>         0.1509
     43 H8          9.1374    3.2516   -6.4688 H         1 <0>         0.1536
     44 H9          9.0823    2.6579   -4.0826 H         1 <0>         0.1512
     45 H10        12.6086    2.9242   -9.4812 H         1 <0>         0.4271
     46 H11        10.4681    5.3209   -9.5763 H         1 <0>         0.1359
     47 H12        10.5130    7.4984   -8.4303 H         1 <0>         0.1314
     48 H13        11.9774    7.8360   -6.4814 H         1 <0>         0.1281
     49 H14        13.3938    5.9956   -5.6668 H         1 <0>         0.1290
     50 H15        13.3498    3.8114   -6.7999 H         1 <0>         0.1279
     51 H16         8.9169   -2.5151    1.5654 H         1 <0>         0.0964
     52 H17         8.9238   -0.7532    1.3127 H         1 <0>         0.0803
     53 H18        10.3413   -0.4699    3.3274 H         1 <0>         0.0758
     54 H19        10.3344   -2.2318    3.5801 H         1 <0>         0.0836
     55 H20         8.3204   -3.3744    4.3100 H         1 <0>         0.1229
     56 H21         6.1801   -3.1934    5.5140 H         1 <0>         0.1229
     57 H22         5.1253   -0.9903    5.8255 H         1 <0>         0.1220
     58 H23         6.2017    1.0295    4.9174 H         1 <0>         0.1225
     59 H24         8.3375    0.8474    3.7056 H         1 <0>         0.1211
@<TRIPOS>BOND
     1    1    2 1
     2    1   36 1
     3    1   37 1
     4    1   38 1
     5    2    8 1
     6    2    3 1
     7    2   28 1
     8    3    4 2
     9    3    5 am
    10    5    6 am
    11    5    9 1
    12    6    7 2
    13    6    8 am
    14    8   39 1
    15    9   10 am
    16    9   40 1
    17   10   11 2
    18   10   12 1
    19   12   17 ar
    20   12   13 ar
    21   13   14 ar
    22   13   41 1
    23   14   15 ar
    24   14   42 1
    25   15   16 ar
    26   15   18 1
    27   16   17 ar
    28   16   43 1
    29   17   44 1
    30   18   19 2
    31   18   20 2
    32   18   21 1
    33   21   22 1
    34   21   45 1
    35   22   27 ar
    36   22   23 ar
    37   23   24 ar
    38   23   46 1
    39   24   25 ar
    40   24   47 1
    41   25   26 ar
    42   25   48 1
    43   26   27 ar
    44   26   49 1
    45   27   50 1
    46   28   29 1
    47   28   51 1
    48   28   52 1
    49   29   30 1
    50   29   53 1
    51   29   54 1
    52   30   35 ar
    53   30   31 ar
    54   31   32 ar
    55   31   55 1
    56   32   33 ar
    57   32   56 1
    58   33   34 ar
    59   33   57 1
    60   34   35 ar
    61   34   58 1
    62   35   59 1
@<TRIPOS>MOLECULE
ZINC10462839
   62    65     0     0     0
SMALL
USER_CHARGES
N-[4-[[4-(ethylsulfamoyl)phenyl]carbamoyl]phenyl]-5-oxo-1-phenyl-pyrrolidine-3-carboxamide
@<TRIPOS>ATOM
      1 C1          1.9631    2.6602    1.5035 C.3       1 <0>        -0.1605
      2 C2          0.6457    3.0432    0.8264 C.3       1 <0>         0.1090
      3 N1         -0.1294    1.8321    0.5458 N.pl3     1 <0>        -1.1174
      4 S1         -1.7348    1.9481    0.1564 S.o2      1 <0>         2.6974
      5 O1         -2.1901    0.6244   -0.0879 O.2       1 <0>        -0.9591
      6 O2         -2.3300    2.7902    1.1342 O.2       1 <0>        -0.9554
      7 C3         -1.8379    2.8075   -1.3783 C.ar      1 <0>        -0.6955
      8 C4         -1.9512    4.1857   -1.3911 C.ar      1 <0>         0.0007
      9 C5         -2.0265    4.8628   -2.5924 C.ar      1 <0>        -0.1435
     10 C6         -1.9997    4.1571   -3.7884 C.ar      1 <0>         0.2072
     11 C7         -1.8915    2.7725   -3.7720 C.ar      1 <0>        -0.1681
     12 C8         -1.8109    2.1019   -2.5673 C.ar      1 <0>         0.0040
     13 N2         -2.0820    4.8391   -5.0065 N.am      1 <0>        -0.6740
     14 C9         -1.5426    6.0682   -5.1284 C.2       1 <0>         0.5646
     15 O3         -0.9036    6.5455   -4.2106 O.2       1 <0>        -0.5072
     16 C10        -1.7273    6.8346   -6.3758 C.ar      1 <0>        -0.1573
     17 C11        -2.4566    6.2852   -7.4339 C.ar      1 <0>        -0.0615
     18 C12        -2.6328    7.0057   -8.5937 C.ar      1 <0>        -0.1506
     19 C13        -2.0748    8.2742   -8.7181 C.ar      1 <0>         0.1795
     20 C14        -1.3430    8.8216   -7.6690 C.ar      1 <0>        -0.1286
     21 C15        -1.1686    8.1093   -6.5039 C.ar      1 <0>        -0.0297
     22 N3         -2.2499    8.9987   -9.8966 N.am      1 <0>        -0.6709
     23 C16        -2.3525   10.3418   -9.8530 C.2       1 <0>         0.5206
     24 O4         -2.3860   10.9130   -8.7837 O.2       1 <0>        -0.4975
     25 C17        -2.4257   11.1338  -11.1330 C.3       1 <0>        -0.1243
     26 H1         -3.3156   10.8681  -11.7035 H         1 <0>         0.1403
     27 C18        -1.1466   10.9371  -11.9794 C.3       1 <0>        -0.1455
     28 C19        -0.2505   12.0851  -11.5700 C.2       1 <0>         0.5143
     29 O5          0.9415   12.1467  -11.7849 O.2       1 <0>        -0.5013
     30 N4         -0.9679   13.0273  -10.9339 N.am      1 <0>        -0.5541
     31 C20        -2.3839   12.6514  -10.8473 C.3       1 <0>         0.1075
     32 C21        -0.4331   14.2139  -10.4200 C.ar      1 <0>         0.1628
     33 C22         0.8987   14.5335  -10.6492 C.ar      1 <0>        -0.1564
     34 C23         1.4218   15.7086  -10.1462 C.ar      1 <0>        -0.0919
     35 C24         0.6241   16.5604   -9.4043 C.ar      1 <0>        -0.1426
     36 C25        -0.7009   16.2420   -9.1691 C.ar      1 <0>        -0.0926
     37 C26        -1.2317   15.0716   -9.6749 C.ar      1 <0>        -0.1536
     38 H2          2.5347    2.0078    0.8433 H         1 <0>         0.0626
     39 H3          2.5398    3.5613    1.7123 H         1 <0>         0.0737
     40 H4          1.7534    2.1385    2.4373 H         1 <0>         0.0651
     41 H5          0.8554    3.5649   -0.1074 H         1 <0>         0.0660
     42 H6          0.0741    3.6956    1.4866 H         1 <0>         0.0814
     43 H7          0.2988    0.9626    0.5841 H         1 <0>         0.4192
     44 H8         -1.9764    4.7335   -0.4606 H         1 <0>         0.1450
     45 H9         -2.1102    5.9395   -2.6018 H         1 <0>         0.1460
     46 H10        -1.8701    2.2208   -4.7002 H         1 <0>         0.1375
     47 H11        -1.7271    1.0253   -2.5538 H         1 <0>         0.1457
     48 H12        -2.5273    4.4276   -5.7637 H         1 <0>         0.4144
     49 H13        -2.8857    5.2985   -7.3400 H         1 <0>         0.1315
     50 H14        -3.2009    6.5840   -9.4097 H         1 <0>         0.1374
     51 H15        -0.9115    9.8067   -7.7687 H         1 <0>         0.1427
     52 H16        -0.6011    8.5351   -5.6897 H         1 <0>         0.1432
     53 H17        -2.2978    8.5359  -10.7478 H         1 <0>         0.4168
     54 H18        -0.6759    9.9827  -11.7432 H         1 <0>         0.1119
     55 H19        -1.3803   10.9933  -13.0426 H         1 <0>         0.1284
     56 H20        -2.9641   13.1921  -11.5950 H         1 <0>         0.0967
     57 H21        -2.7685   12.8579   -9.8485 H         1 <0>         0.1084
     58 H22         1.5236   13.8661  -11.2242 H         1 <0>         0.1535
     59 H23         2.4560   15.9604  -10.3287 H         1 <0>         0.1271
     60 H24         1.0367   17.4764   -9.0080 H         1 <0>         0.1241
     61 H25        -1.3213   16.9095   -8.5896 H         1 <0>         0.1274
     62 H26        -2.2667   14.8239   -9.4915 H         1 <0>         0.1257
@<TRIPOS>BOND
     1    1    2 1
     2    1   38 1
     3    1   39 1
     4    1   40 1
     5    2    3 1
     6    2   41 1
     7    2   42 1
     8    3    4 1
     9    3   43 1
    10    4    5 2
    11    4    6 2
    12    4    7 1
    13    7   12 ar
    14    7    8 ar
    15    8    9 ar
    16    8   44 1
    17    9   10 ar
    18    9   45 1
    19   10   11 ar
    20   10   13 1
    21   11   12 ar
    22   11   46 1
    23   12   47 1
    24   13   14 am
    25   13   48 1
    26   14   15 2
    27   14   16 1
    28   16   21 ar
    29   16   17 ar
    30   17   18 ar
    31   17   49 1
    32   18   19 ar
    33   18   50 1
    34   19   20 ar
    35   19   22 1
    36   20   21 ar
    37   20   51 1
    38   21   52 1
    39   22   23 am
    40   22   53 1
    41   23   24 2
    42   23   25 1
    43   25   26 1
    44   25   31 1
    45   25   27 1
    46   27   28 1
    47   27   54 1
    48   27   55 1
    49   28   29 2
    50   28   30 am
    51   30   31 1
    52   30   32 1
    53   31   56 1
    54   31   57 1
    55   32   37 ar
    56   32   33 ar
    57   33   34 ar
    58   33   58 1
    59   34   35 ar
    60   34   59 1
    61   35   36 ar
    62   35   60 1
    63   36   37 ar
    64   36   61 1
    65   37   62 1
@<TRIPOS>MOLECULE
ZINC18346977
   45    46     0     0     0
SMALL
USER_CHARGES
ethyl 4-carbamoyl-5-[[2-[3-chloro-2-oxo-5-(trifluoromethyl)-1-pyridyl]acetyl]amino]-2-methyl-furan-3-carboxylate
@<TRIPOS>ATOM
      1 C1         -3.6846    2.8121    5.2406 C.3       1 <0>        -0.1545
      2 C2         -2.2757    2.9903    4.6713 C.3       1 <0>         0.0604
      3 O1         -2.3635    3.3834    3.2762 O.3       1 <0>        -0.3432
      4 C3         -1.2018    3.5824    2.6222 C.2       1 <0>         0.5451
      5 O2         -0.1442    3.4315    3.2022 O.2       1 <0>        -0.4866
      6 C4         -1.2138    3.9822    1.2067 C.2       1 <0>        -0.1614
      7 C5         -1.2328    5.2480    0.7109 C.2       1 <0>         0.0667
      8 O3         -1.2381    5.1991   -0.6268 O.3       1 <0>        -0.1390
      9 C6         -1.2177    3.9346   -1.0694 C.2       1 <0>         0.2903
     10 C7         -1.2072    3.0895    0.0246 C.2       1 <0>        -0.2256
     11 C8         -1.1873    1.6238    0.0165 C.2       1 <0>         0.5913
     12 O4         -2.2330    1.0009    0.0181 O.2       1 <0>        -0.5173
     13 N1         -0.0111    0.9658    0.0074 N.am      1 <0>        -0.8409
     14 N2         -1.2109    3.5418   -2.3945 N.am      1 <0>        -0.6234
     15 C9         -1.2227    4.4692   -3.3724 C.2       1 <0>         0.4952
     16 O5         -1.2392    5.6484   -3.0895 O.2       1 <0>        -0.4703
     17 C10        -1.2153    4.0410   -4.8172 C.3       1 <0>         0.0756
     18 N3         -1.2307    5.2263   -5.6780 N.am      1 <0>        -0.4773
     19 C11        -0.0573    5.7857   -6.0712 C.2       1 <0>         0.2135
     20 C12        -0.0456    6.8805   -6.8664 C.2       1 <0>        -0.2794
     21 C13        -1.2543    7.4491   -7.2931 C.2       1 <0>         0.0205
     22 C14        -2.4325    6.8862   -6.8974 C.2       1 <0>        -0.1499
     23 C15        -2.4082    5.7455   -6.0748 C.2       1 <0>         0.5339
     24 O6         -3.4545    5.2288   -5.7169 O.2       1 <0>        -0.4997
     25 Cl1        -3.9454    7.5665   -7.4094 Cl        1 <0>        -0.0074
     26 C16         1.2656    7.4886   -7.2929 C.3       1 <0>         0.5319
     27 F1          1.6272    6.9851   -8.5470 F         1 <0>        -0.1705
     28 F2          1.1318    8.8791   -7.3695 F         1 <0>        -0.1683
     29 F3          2.2551    7.1661   -6.3580 F         1 <0>        -0.1749
     30 C17        -1.2467    6.5080    1.5373 C.3       1 <0>        -0.0840
     31 H1         -4.2299    3.7526    5.1618 H         1 <0>         0.0687
     32 H2         -4.2089    2.0398    4.6778 H         1 <0>         0.0691
     33 H3         -3.6187    2.5171    6.2878 H         1 <0>         0.0835
     34 H4         -1.7304    2.0498    4.7501 H         1 <0>         0.0726
     35 H5         -1.7514    3.7626    5.2340 H         1 <0>         0.0744
     36 H6          0.0021   -0.0041    0.0020 H         1 <0>         0.4091
     37 H7          0.8223    1.4622    0.0021 H         1 <0>         0.4065
     38 H8         -1.1977    2.5986   -2.6208 H         1 <0>         0.4377
     39 H9         -0.3170    3.4574   -5.0186 H         1 <0>         0.1439
     40 H10        -2.0968    3.4329   -5.0204 H         1 <0>         0.1512
     41 H11         0.8767    5.3523   -5.7453 H         1 <0>         0.1844
     42 H12        -1.2526    8.3226   -7.9282 H         1 <0>         0.1603
     43 H13        -0.2224    6.8257    1.7326 H         1 <0>         0.0973
     44 H14        -1.7732    7.2929    0.9944 H         1 <0>         0.0943
     45 H15        -1.7543    6.3169    2.4828 H         1 <0>         0.0963
@<TRIPOS>BOND
     1    1    2 1
     2    1   31 1
     3    1   32 1
     4    1   33 1
     5    2    3 1
     6    2   34 1
     7    2   35 1
     8    3    4 1
     9    4    5 2
    10    4    6 1
    11    6   10 1
    12    6    7 2
    13    7    8 1
    14    7   30 1
    15    8    9 1
    16    9   10 2
    17    9   14 1
    18   10   11 1
    19   11   12 2
    20   11   13 am
    21   13   36 1
    22   13   37 1
    23   14   15 am
    24   14   38 1
    25   15   16 2
    26   15   17 1
    27   17   18 1
    28   17   39 1
    29   17   40 1
    30   18   23 am
    31   18   19 1
    32   19   20 2
    33   19   41 1
    34   20   21 1
    35   20   26 1
    36   21   22 2
    37   21   42 1
    38   22   23 1
    39   22   25 1
    40   23   24 2
    41   26   27 1
    42   26   28 1
    43   26   29 1
    44   30   43 1
    45   30   44 1
    46   30   45 1
@<TRIPOS>MOLECULE
ZINC35544468
   59    60     0     0     0
SMALL
USER_CHARGES

@<TRIPOS>ATOM
      1 C1          1.3488   -2.8926   -2.6150 C.3       1 <0>        -0.1590
      2 C2          0.6105   -1.5580   -2.7355 C.3       1 <0>        -0.1376
      3 C3          0.7917   -0.7566   -1.4448 C.3       1 <0>         0.1245
      4 H1          0.4817   -1.3631   -0.5939 H         1 <0>         0.0973
      5 C4         -0.0639    0.5103   -1.5068 C.3       1 <0>        -0.1686
      6 N1          2.2012   -0.3869   -1.2933 N.am      1 <0>        -0.5936
      7 C5          2.8313    0.5115   -2.2639 C.3       1 <0>         0.1552
      8 H2          2.0967    0.8077   -3.0127 H         1 <0>         0.1154
      9 C6          3.3531    1.7624   -1.5378 C.3       1 <0>        -0.1487
     10 C7          4.2802    2.5389   -2.5160 C.3       1 <0>        -0.5718
     11 S1          5.1887    1.1410   -3.3006 S.o2      1 <0>         2.3744
     12 O1          6.3878    0.9042   -2.5759 O.2       1 <0>        -0.9226
     13 O2          5.2510    1.3595   -4.7033 O.2       1 <0>        -0.9375
     14 C8          4.0044   -0.2225   -2.9573 C.3       1 <0>        -0.6019
     15 C9          2.9182   -0.8734   -0.2610 C.2       1 <0>         0.5178
     16 O3          4.1066   -0.6428   -0.1860 O.2       1 <0>        -0.5010
     17 C10         2.2434   -1.7040    0.8001 C.3       1 <0>         0.0470
     18 O4          3.1790   -2.0022    1.8382 O.3       1 <0>        -0.3275
     19 C11         2.7331   -2.7403    2.8669 C.2       1 <0>         0.4611
     20 O5          1.5864   -3.1205    2.8853 O.2       1 <0>        -0.4895
     21 C12         3.6627   -3.0946    3.9988 C.3       1 <0>        -0.1193
     22 C13         2.9103   -3.9346    5.0328 C.3       1 <0>         0.2218
     23 H3          2.4697   -4.8035    4.5440 H         1 <0>         0.1091
     24 C14         3.8687   -4.3919    6.1021 C.ar      1 <0>        -0.0946
     25 C15         4.1787   -3.5534    7.1566 C.ar      1 <0>        -0.0886
     26 C16         5.0577   -3.9722    8.1375 C.ar      1 <0>        -0.1109
     27 C17         5.6272   -5.2309    8.0641 C.ar      1 <0>        -0.0303
     28 C18         5.3165   -6.0697    7.0085 C.ar      1 <0>        -0.1079
     29 C19         4.4331   -5.6518    6.0311 C.ar      1 <0>        -0.0861
     30 Cl1         6.7317   -5.7575    9.2955 Cl        1 <0>        -0.0681
     31 N2          1.8501   -3.1264    5.6405 N.am      1 <0>        -0.7355
     32 C20         0.8015   -3.7282    6.2360 C.2       1 <0>         0.7135
     33 O6          0.7793   -4.9385    6.3497 O.2       1 <0>        -0.5846
     34 N3         -0.2226   -2.9883    6.7055 N.am      1 <0>        -0.8669
     35 H4          2.4099   -2.7071   -2.4484 H         1 <0>         0.0557
     36 H5          0.9427   -3.4580   -1.7762 H         1 <0>         0.0551
     37 H6          1.2197   -3.4636   -3.5345 H         1 <0>         0.0618
     38 H7          1.0166   -0.9926   -3.5743 H         1 <0>         0.0716
     39 H8         -0.4506   -1.7434   -2.9021 H         1 <0>         0.0818
     40 H9         -1.1186    0.2358   -1.5266 H         1 <0>         0.0763
     41 H10         0.1348    1.1262   -0.6297 H         1 <0>         0.0648
     42 H11         0.1825    1.0715   -2.4082 H         1 <0>         0.0651
     43 H12         2.5149    2.3947   -1.2450 H         1 <0>         0.1019
     44 H13         3.9169    1.4663   -0.6532 H         1 <0>         0.1066
     45 H14         3.6994    3.0943   -3.2524 H         1 <0>         0.1401
     46 H15         4.9605    3.1972   -1.9756 H         1 <0>         0.1448
     47 H16         4.4477   -0.9605   -2.2888 H         1 <0>         0.1554
     48 H17         3.6739   -0.6891   -3.8853 H         1 <0>         0.1427
     49 H18         1.4033   -1.1484    1.2167 H         1 <0>         0.1000
     50 H19         1.8818   -2.6329    0.3590 H         1 <0>         0.1017
     51 H20         4.5062   -3.6658    3.6110 H         1 <0>         0.1312
     52 H21         4.0277   -2.1813    4.4687 H         1 <0>         0.1190
     53 H22         3.7344   -2.5707    7.2136 H         1 <0>         0.1281
     54 H23         5.3001   -3.3170    8.9611 H         1 <0>         0.1338
     55 H24         5.7611   -7.0522    6.9505 H         1 <0>         0.1361
     56 H25         4.1868   -6.3082    5.2096 H         1 <0>         0.1347
     57 H26         1.9029   -2.1582    5.6142 H         1 <0>         0.3946
     58 H27        -0.2048   -2.0227    6.6148 H         1 <0>         0.3957
     59 H28        -0.9773   -3.4214    7.1341 H         1 <0>         0.4160
@<TRIPOS>BOND
     1    1    2 1
     2    1   35 1
     3    1   36 1
     4    1   37 1
     5    2    3 1
     6    2   38 1
     7    2   39 1
     8    3    4 1
     9    3    5 1
    10    3    6 1
    11    5   40 1
    12    5   41 1
    13    5   42 1
    14    6    7 1
    15    6   15 am
    16    7    8 1
    17    7   14 1
    18    7    9 1
    19    9   10 1
    20    9   43 1
    21    9   44 1
    22   10   11 1
    23   10   45 1
    24   10   46 1
    25   11   12 2
    26   11   13 2
    27   11   14 1
    28   14   47 1
    29   14   48 1
    30   15   16 2
    31   15   17 1
    32   17   18 1
    33   17   49 1
    34   17   50 1
    35   18   19 1
    36   19   20 2
    37   19   21 1
    38   21   22 1
    39   21   51 1
    40   21   52 1
    41   22   23 1
    42   22   24 1
    43   22   31 1
    44   24   29 ar
    45   24   25 ar
    46   25   26 ar
    47   25   53 1
    48   26   27 ar
    49   26   54 1
    50   27   28 ar
    51   27   30 1
    52   28   29 ar
    53   28   55 1
    54   29   56 1
    55   31   32 am
    56   31   57 1
    57   32   33 2
    58   32   34 am
    59   34   58 1
    60   34   59 1
@<TRIPOS>MOLECULE
ZINC27200175
   58    59     0     0     0
SMALL
USER_CHARGES

@<TRIPOS>ATOM
      1 C1          0.6160    3.1353    0.6370 C.3       1 <0>        -0.1797
      2 C2          0.0225    1.8010    0.1806 C.3       1 <0>         0.0785
      3 H1          0.2505    1.0308    0.9175 H         1 <0>         0.1082
      4 C3          0.6171    1.4154   -1.1494 C.2       1 <0>         0.5192
      5 O1         -0.0882    1.3543   -2.1341 O.2       1 <0>        -0.5069
      6 N1          1.9327    1.1385   -1.2445 N.am      1 <0>        -0.5191
      7 N2          2.4855    0.7801   -2.4810 N.am      1 <0>        -0.5173
      8 C4          3.8010    0.5032   -2.5761 C.2       1 <0>         0.5201
      9 O2          4.4871    0.4677   -1.5766 O.2       1 <0>        -0.5198
     10 C5          4.4196    0.2377   -3.9244 C.3       1 <0>         0.1566
     11 H2          3.9076    0.8308   -4.6822 H         1 <0>         0.1088
     12 C6          4.2856   -1.2482   -4.2633 C.3       1 <0>        -0.1108
     13 C7          4.9384   -2.0838   -3.1603 C.3       1 <0>        -0.1521
     14 C8          2.8042   -1.6150   -4.3719 C.3       1 <0>        -0.1631
     15 N3          5.8374    0.6054   -3.8922 N.pl3     1 <0>        -1.0993
     16 S1          6.5557    1.2527   -5.2365 S.o2      1 <0>         2.6975
     17 O3          7.9056    1.5236   -4.8851 O.2       1 <0>        -0.9493
     18 O4          6.2065    0.4125   -6.3280 O.2       1 <0>        -0.9468
     19 C9          5.7908    2.8115   -5.5363 C.ar      1 <0>        -0.7222
     20 C10         4.6706    2.8869   -6.3432 C.ar      1 <0>         0.0122
     21 C11         4.0694    4.1079   -6.5801 C.ar      1 <0>        -0.1699
     22 C12         4.5903    5.2590   -6.0072 C.ar      1 <0>         0.1867
     23 C13         5.7142    5.1807   -5.1976 C.ar      1 <0>        -0.2290
     24 C14         6.3086    3.9566   -4.9596 C.ar      1 <0>         0.0257
     25 O5          4.0010    6.4614   -6.2391 O.3       1 <0>        -0.3087
     26 C15         4.5915    7.6041   -5.6166 C.3       1 <0>         0.0213
     27 O6         -1.3946    1.9300    0.0494 O.3       1 <0>        -0.2794
     28 C16        -2.1400    1.7147    1.1657 C.ar      1 <0>         0.1183
     29 C17        -3.5248    1.7395    1.0912 C.ar      1 <0>        -0.1156
     30 C18        -4.2810    1.5206    2.2265 C.ar      1 <0>        -0.1106
     31 C19        -3.6572    1.2770    3.4383 C.ar      1 <0>         0.0640
     32 C20        -2.2749    1.2523    3.5141 C.ar      1 <0>        -0.1109
     33 C21        -1.5163    1.4643    2.3791 C.ar      1 <0>        -0.1845
     34 F1         -4.3979    1.0635    4.5478 F         1 <0>        -0.1384
     35 H3          1.6969    3.0369    0.7371 H         1 <0>         0.0821
     36 H4          0.3879    3.9054   -0.0999 H         1 <0>         0.0802
     37 H5          0.1859    3.4141    1.5990 H         1 <0>         0.0836
     38 H6          2.4968    1.1874   -0.4569 H         1 <0>         0.4339
     39 H7          1.9214    0.7312   -3.2685 H         1 <0>         0.4351
     40 H8          4.7805   -1.4503   -5.2133 H         1 <0>         0.1094
     41 H9          4.4435   -1.8817   -2.2104 H         1 <0>         0.0583
     42 H10         4.8430   -3.1424   -3.4018 H         1 <0>         0.0644
     43 H11         5.9938   -1.8225   -3.0830 H         1 <0>         0.0628
     44 H12         2.3105   -1.4182   -3.4202 H         1 <0>         0.0570
     45 H13         2.3379   -1.0157   -5.1539 H         1 <0>         0.0655
     46 H14         2.7089   -2.6724   -4.6189 H         1 <0>         0.0745
     47 H15         6.3553    0.4696   -3.0834 H         1 <0>         0.4300
     48 H16         4.2655    1.9904   -6.7889 H         1 <0>         0.1492
     49 H17         3.1948    4.1663   -7.2110 H         1 <0>         0.1442
     50 H18         6.1216    6.0754   -4.7505 H         1 <0>         0.1402
     51 H19         7.1809    3.8945   -4.3258 H         1 <0>         0.1445
     52 H20         5.6212    7.7121   -5.9575 H         1 <0>         0.0621
     53 H21         4.0251    8.4964   -5.8833 H         1 <0>         0.1075
     54 H22         4.5787    7.4756   -4.5343 H         1 <0>         0.0609
     55 H23        -4.0117    1.9303    0.1463 H         1 <0>         0.1449
     56 H24        -5.3593    1.5399    2.1688 H         1 <0>         0.1455
     57 H25        -1.7896    1.0625    4.4601 H         1 <0>         0.1408
     58 H26        -0.4382    1.4402    2.4376 H         1 <0>         0.1398
@<TRIPOS>BOND
     1    1    2 1
     2    1   35 1
     3    1   36 1
     4    1   37 1
     5    2    3 1
     6    2    4 1
     7    2   27 1
     8    4    5 2
     9    4    6 am
    10    6    7 1
    11    6   38 1
    12    7    8 am
    13    7   39 1
    14    8    9 2
    15    8   10 1
    16   10   11 1
    17   10   12 1
    18   10   15 1
    19   12   13 1
    20   12   14 1
    21   12   40 1
    22   13   41 1
    23   13   42 1
    24   13   43 1
    25   14   44 1
    26   14   45 1
    27   14   46 1
    28   15   16 1
    29   15   47 1
    30   16   17 2
    31   16   18 2
    32   16   19 1
    33   19   24 ar
    34   19   20 ar
    35   20   21 ar
    36   20   48 1
    37   21   22 ar
    38   21   49 1
    39   22   23 ar
    40   22   25 1
    41   23   24 ar
    42   23   50 1
    43   24   51 1
    44   25   26 1
    45   26   52 1
    46   26   53 1
    47   26   54 1
    48   27   28 1
    49   28   33 ar
    50   28   29 ar
    51   29   30 ar
    52   29   55 1
    53   30   31 ar
    54   30   56 1
    55   31   32 ar
    56   31   34 1
    57   32   33 ar
    58   32   57 1
    59   33   58 1
@<TRIPOS>MOLECULE
ZINC06786787
   54    56     0     0     0
SMALL
USER_CHARGES
N-[[4-(phenoxymethyl)benzoyl]aminocarbamoylmethyl]-2-phenyl-acetamide
@<TRIPOS>ATOM
      1 C1         18.1291   -9.7833    5.1654 C.ar      1 <0>        -0.1182
      2 C2         18.2908   -8.4104    5.1706 C.ar      1 <0>        -0.1189
      3 C3         17.1827   -7.5841    5.1848 C.ar      1 <0>        -0.1051
      4 C4         15.9130   -8.1306    5.1942 C.ar      1 <0>        -0.0714
      5 C5         15.7514   -9.5035    5.1947 C.ar      1 <0>        -0.1051
      6 C6         16.8595  -10.3298    5.1753 C.ar      1 <0>        -0.1188
      7 C7         14.7050   -7.2297    5.2101 C.3       1 <0>        -0.0995
      8 C8         14.2888   -6.9225    3.7946 C.2       1 <0>         0.5191
      9 O1         14.9118   -7.3891    2.8645 O.2       1 <0>        -0.5249
     10 N1         13.2243   -6.1292    3.5623 N.am      1 <0>        -0.7230
     11 C9         12.8198   -5.8305    2.1863 C.3       1 <0>         0.1120
     12 C10        11.6118   -4.9297    2.2022 C.2       1 <0>         0.5127
     13 O2         11.1357   -4.5723    3.2589 O.2       1 <0>        -0.5342
     14 N2         11.0605   -4.5211    1.0422 N.am      1 <0>        -0.5148
     15 N3          9.9375   -3.6836    1.0570 N.am      1 <0>        -0.5189
     16 C11         9.3862   -3.2751   -0.1031 C.2       1 <0>         0.5636
     17 O3          9.8634   -3.6333   -1.1621 O.2       1 <0>        -0.5279
     18 C12         8.2011   -2.3913   -0.0875 C.ar      1 <0>        -0.1205
     19 C13         7.6278   -1.9664   -1.2870 C.ar      1 <0>        -0.0540
     20 C14         6.5217   -1.1421   -1.2655 C.ar      1 <0>        -0.0996
     21 C15         5.9808   -0.7367   -0.0583 C.ar      1 <0>        -0.0643
     22 C16         6.5476   -1.1497    1.1344 C.ar      1 <0>        -0.0990
     23 C17         7.6504   -1.9786    1.1269 C.ar      1 <0>        -0.0865
     24 C18         4.7725    0.1638   -0.0424 C.3       1 <0>         0.0966
     25 O4          3.5855   -0.6319   -0.0353 O.3       1 <0>        -0.3083
     26 C19         2.3989    0.0304   -0.0208 C.ar      1 <0>         0.1272
     27 C20         1.2070   -0.6796   -0.0132 C.ar      1 <0>        -0.1511
     28 C21         0.0021   -0.0041    0.0020 C.ar      1 <0>        -0.0799
     29 C22        -0.0167    1.3784    0.0096 C.ar      1 <0>        -0.1574
     30 C23         1.1698    2.0883    0.0021 C.ar      1 <0>        -0.0800
     31 C24         2.3774    1.4175   -0.0131 C.ar      1 <0>        -0.2102
     32 H1         18.9949  -10.4289    5.1540 H         1 <0>         0.1218
     33 H2         19.2827   -7.9834    5.1633 H         1 <0>         0.1225
     34 H3         17.3090   -6.5115    5.1889 H         1 <0>         0.1197
     35 H4         14.7595   -9.9305    5.2065 H         1 <0>         0.1198
     36 H5         16.7332  -11.4024    5.1716 H         1 <0>         0.1225
     37 H6         14.9507   -6.3016    5.7261 H         1 <0>         0.1067
     38 H7         13.8866   -7.7285    5.7293 H         1 <0>         0.1068
     39 H8         12.7261   -5.7560    4.3062 H         1 <0>         0.4138
     40 H9         12.5741   -6.7587    1.6703 H         1 <0>         0.1084
     41 H10        13.6381   -5.3318    1.6671 H         1 <0>         0.1083
     42 H11        11.4413   -4.8070    0.1971 H         1 <0>         0.4377
     43 H12         9.5567   -3.3978    1.9021 H         1 <0>         0.4331
     44 H13         8.0488   -2.2825   -2.2300 H         1 <0>         0.1439
     45 H14         6.0769   -0.8129   -2.1929 H         1 <0>         0.1369
     46 H15         6.1232   -0.8260    2.0733 H         1 <0>         0.1357
     47 H16         8.0891   -2.3041    2.0585 H         1 <0>         0.1308
     48 H17         4.7798    0.7974   -0.9293 H         1 <0>         0.0766
     49 H18         4.7965    0.7884    0.8506 H         1 <0>         0.0763
     50 H19         1.2211   -1.7595   -0.0195 H         1 <0>         0.1308
     51 H20        -0.9261   -0.5563    0.0076 H         1 <0>         0.1303
     52 H21        -0.9597    1.9047    0.0170 H         1 <0>         0.1247
     53 H22         1.1525    3.1682    0.0077 H         1 <0>         0.1256
     54 H23         3.3039    1.9724   -0.0187 H         1 <0>         0.1275
@<TRIPOS>BOND
     1    1    6 ar
     2    1    2 ar
     3    1   32 1
     4    2    3 ar
     5    2   33 1
     6    3    4 ar
     7    3   34 1
     8    4    5 ar
     9    4    7 1
    10    5    6 ar
    11    5   35 1
    12    6   36 1
    13    7    8 1
    14    7   37 1
    15    7   38 1
    16    8    9 2
    17    8   10 am
    18   10   11 1
    19   10   39 1
    20   11   12 1
    21   11   40 1
    22   11   41 1
    23   12   13 2
    24   12   14 am
    25   14   15 1
    26   14   42 1
    27   15   16 am
    28   15   43 1
    29   16   17 2
    30   16   18 1
    31   18   23 ar
    32   18   19 ar
    33   19   20 ar
    34   19   44 1
    35   20   21 ar
    36   20   45 1
    37   21   22 ar
    38   21   24 1
    39   22   23 ar
    40   22   46 1
    41   23   47 1
    42   24   25 1
    43   24   48 1
    44   24   49 1
    45   25   26 1
    46   26   31 ar
    47   26   27 ar
    48   27   28 ar
    49   27   50 1
    50   28   29 ar
    51   28   51 1
    52   29   30 ar
    53   29   52 1
    54   30   31 ar
    55   30   53 1
    56   31   54 1
@<TRIPOS>MOLECULE
ZINC14697644
   67    70     0     0     0
SMALL
USER_CHARGES
N-(6-amino-1-benzyl-2,4-dioxo-pyrimidin-5-yl)-N-[2-(1-cyclohexenyl)ethyl]-3-phenyl-propanamide
@<TRIPOS>ATOM
      1 C1          6.9147    9.5155   -0.6673 C.ar      1 <0>        -0.1239
      2 C2          6.2992    9.0318   -1.8067 C.ar      1 <0>        -0.1172
      3 C3          5.1230    8.3128   -1.7047 C.ar      1 <0>        -0.1153
      4 C4          4.5620    8.0779   -0.4634 C.ar      1 <0>        -0.0822
      5 C5          5.1744    8.5664    0.6756 C.ar      1 <0>        -0.1170
      6 C6          6.3534    9.2810    0.5740 C.ar      1 <0>        -0.1184
      7 C7          3.2795    7.2944   -0.3522 C.3       1 <0>        -0.0665
      8 C8          3.6022    5.8062   -0.2041 C.3       1 <0>        -0.1301
      9 C9          2.3197    5.0227   -0.0929 C.2       1 <0>         0.5204
     10 O1          1.2522    5.5982   -0.1287 O.2       1 <0>        -0.5136
     11 N1          2.3585    3.6811    0.0464 N.am      1 <0>        -0.5305
     12 C10         3.6453    2.9974    0.1984 C.3       1 <0>         0.1105
     13 C11         4.2473    2.7306   -1.1826 C.3       1 <0>        -0.1039
     14 C12         5.5710    2.0273   -1.0262 C.2       1 <0>        -0.1209
     15 C13         5.5840    0.7350   -1.0990 C.2       1 <0>        -0.1498
     16 C14         6.8204   -0.1030   -0.9536 C.3       1 <0>        -0.0903
     17 C15         8.0686    0.7631   -1.1366 C.3       1 <0>        -0.1224
     18 C16         7.9311    2.0062   -0.2484 C.3       1 <0>        -0.1195
     19 C17         6.7928    2.8691   -0.8017 C.3       1 <0>        -0.0829
     20 C18         1.1599    2.9367    0.0456 C.2       1 <0>        -0.1404
     21 C19         0.7479    2.2688    1.1806 C.2       1 <0>         0.4835
     22 N2         -0.4256    1.5518    1.1490 N.am      1 <0>        -0.5340
     23 C20        -1.1656    1.5064    0.0264 C.2       1 <0>         0.7139
     24 O2         -2.2023    0.8708    0.0201 O.2       1 <0>        -0.5333
     25 N3         -0.7772    2.1467   -1.0906 N.am      1 <0>        -0.6629
     26 H1         -1.3416    2.0905   -1.9142 H         1 <0>         0.4392
     27 C21         0.3637    2.8631   -1.1128 C.2       1 <0>         0.5685
     28 O3          0.7045    3.4434   -2.1297 O.2       1 <0>        -0.5121
     29 C22        -0.8751    0.8379    2.3468 C.3       1 <0>         0.1492
     30 C23        -1.7453    1.7466    3.1763 C.ar      1 <0>        -0.1286
     31 C24        -1.1785    2.5441    4.1528 C.ar      1 <0>        -0.1025
     32 C25        -1.9761    3.3812    4.9104 C.ar      1 <0>        -0.1203
     33 C26        -3.3418    3.4130    4.6986 C.ar      1 <0>        -0.1040
     34 C27        -3.9092    2.6116    3.7257 C.ar      1 <0>        -0.1196
     35 C28        -3.1109    1.7783    2.9645 C.ar      1 <0>        -0.0857
     36 N4          1.5013    2.3190    2.3289 N.pl3     1 <0>        -0.8328
     37 H2          7.8338   10.0770   -0.7469 H         1 <0>         0.1205
     38 H3          6.7376    9.2154   -2.7765 H         1 <0>         0.1215
     39 H4          4.6422    7.9349   -2.5949 H         1 <0>         0.1218
     40 H5          4.7337    8.3866    1.6451 H         1 <0>         0.1205
     41 H6          6.8340    9.6592    1.4642 H         1 <0>         0.1210
     42 H7          2.6805    7.4487   -1.2497 H         1 <0>         0.0815
     43 H8          2.7209    7.6336    0.5201 H         1 <0>         0.0795
     44 H9          4.2011    5.6519    0.6935 H         1 <0>         0.0933
     45 H10         4.1608    5.4669   -1.0764 H         1 <0>         0.0984
     46 H11         4.3242    3.6251    0.7757 H         1 <0>         0.0845
     47 H12         3.4948    2.0512    0.7182 H         1 <0>         0.0796
     48 H13         3.5684    2.1029   -1.7598 H         1 <0>         0.0746
     49 H14         4.3978    3.6768   -1.7023 H         1 <0>         0.0753
     50 H15         4.6467    0.2283   -1.2758 H         1 <0>         0.1010
     51 H16         6.8362   -0.5545    0.0384 H         1 <0>         0.0720
     52 H17         6.8148   -0.8893   -1.7084 H         1 <0>         0.0702
     53 H18         8.9530    0.1982   -0.8418 H         1 <0>         0.0642
     54 H19         8.1545    1.0661   -2.1801 H         1 <0>         0.0641
     55 H20         7.7024    1.7030    0.7733 H         1 <0>         0.0635
     56 H21         8.8628    2.5717   -0.2628 H         1 <0>         0.0651
     57 H22         7.1012    3.3175   -1.7462 H         1 <0>         0.0739
     58 H23         6.5610    3.6593   -0.0876 H         1 <0>         0.0703
     59 H24        -1.4462   -0.0425    2.0521 H         1 <0>         0.1217
     60 H25        -0.0091    0.5299    2.9326 H         1 <0>         0.0997
     61 H26        -0.1121    2.5160    4.3212 H         1 <0>         0.1156
     62 H27        -1.5329    4.0071    5.6708 H         1 <0>         0.1260
     63 H28        -3.9655    4.0637    5.2936 H         1 <0>         0.1260
     64 H29        -4.9762    2.6361    3.5605 H         1 <0>         0.1273
     65 H30        -3.5543    1.1519    2.2046 H         1 <0>         0.1334
     66 H31         2.3486    2.7911    2.3328 H         1 <0>         0.4236
     67 H32         1.1857    1.8824    3.1355 H         1 <0>         0.4056
@<TRIPOS>BOND
     1    1    6 ar
     2    1    2 ar
     3    1   37 1
     4    2    3 ar
     5    2   38 1
     6    3    4 ar
     7    3   39 1
     8    4    5 ar
     9    4    7 1
    10    5    6 ar
    11    5   40 1
    12    6   41 1
    13    7    8 1
    14    7   42 1
    15    7   43 1
    16    8    9 1
    17    8   44 1
    18    8   45 1
    19    9   10 2
    20    9   11 am
    21   11   12 1
    22   11   20 1
    23   12   13 1
    24   12   46 1
    25   12   47 1
    26   13   14 1
    27   13   48 1
    28   13   49 1
    29   14   19 1
    30   14   15 2
    31   15   16 1
    32   15   50 1
    33   16   17 1
    34   16   51 1
    35   16   52 1
    36   17   18 1
    37   17   53 1
    38   17   54 1
    39   18   19 1
    40   18   55 1
    41   18   56 1
    42   19   57 1
    43   19   58 1
    44   20   27 1
    45   20   21 2
    46   21   22 1
    47   21   36 1
    48   22   23 am
    49   22   29 1
    50   23   24 2
    51   23   25 am
    52   25   26 1
    53   25   27 am
    54   27   28 2
    55   29   30 1
    56   29   59 1
    57   29   60 1
    58   30   35 ar
    59   30   31 ar
    60   31   32 ar
    61   31   61 1
    62   32   33 ar
    63   32   62 1
    64   33   34 ar
    65   33   63 1
    66   34   35 ar
    67   34   64 1
    68   35   65 1
    69   36   66 1
    70   36   67 1
@<TRIPOS>MOLECULE
ZINC20115063
   57    59     0     0     0
SMALL
USER_CHARGES
N-[[4-(2-furylmethylcarbamoyl)phenyl]carbamothioyl]-4-isobutoxy-benzamide
@<TRIPOS>ATOM
      1 C1          3.2898  -13.0184    0.3086 C.3       1 <0>        -0.1509
      2 C2          2.5468  -12.4967   -0.9229 C.3       1 <0>        -0.0954
      3 C3          1.1880  -13.1915   -1.0310 C.3       1 <0>        -0.1493
      4 C4          2.3385  -10.9867   -0.7912 C.3       1 <0>         0.0579
      5 O1          3.6064  -10.3277   -0.8073 O.3       1 <0>        -0.3051
      6 C5          3.5992   -8.9750   -0.6991 C.ar      1 <0>         0.1661
      7 C6          4.7986   -8.2725   -0.7080 C.ar      1 <0>        -0.1570
      8 C7          4.7957   -6.9001   -0.5979 C.ar      1 <0>        -0.0112
      9 C8          3.5843   -6.2132   -0.4775 C.ar      1 <0>        -0.1783
     10 C9          2.3808   -6.9238   -0.4636 C.ar      1 <0>        -0.0454
     11 C10         2.3922   -8.2957   -0.5800 C.ar      1 <0>        -0.2170
     12 C11         3.5764   -4.7427   -0.3594 C.2       1 <0>         0.5406
     13 O2          4.6243   -4.1268   -0.3667 O.2       1 <0>        -0.4057
     14 N1          2.4073   -4.0822   -0.2434 N.am      1 <0>        -0.6524
     15 C12         2.4001   -2.7388   -0.1355 C.2       1 <0>         0.5180
     16 S1          3.8760   -1.8713   -0.1457 S.2       1 <0>        -0.4899
     17 N2          1.2310   -2.0784   -0.0195 N.pl3     1 <0>        -0.6376
     18 C13         1.2145   -0.6849   -0.0241 C.ar      1 <0>         0.1566
     19 C14         2.0139    0.0159   -0.9220 C.ar      1 <0>        -0.0826
     20 C15         1.9993    1.3923   -0.9298 C.ar      1 <0>        -0.0482
     21 C16         1.1807    2.0860   -0.0341 C.ar      1 <0>        -0.1287
     22 C17         0.3794    1.3790    0.8668 C.ar      1 <0>        -0.0788
     23 C18         0.3983    0.0027    0.8690 C.ar      1 <0>        -0.1297
     24 C19         1.1628    3.5616   -0.0393 C.2       1 <0>         0.5626
     25 O3          1.8608    4.1753   -0.8233 O.2       1 <0>        -0.5340
     26 N3          0.3729    4.2290    0.8250 N.am      1 <0>        -0.7362
     27 C20         0.3552    5.6939    0.8199 C.3       1 <0>         0.2045
     28 C21        -0.6025    6.1884    1.8731 C.2       1 <0>        -0.0398
     29 C22        -0.2923    6.4589    3.1537 C.2       1 <0>        -0.1815
     30 C23        -1.4830    6.8925    3.7808 C.2       1 <0>        -0.2178
     31 C24        -2.4496    6.8610    2.8459 C.2       1 <0>        -0.0276
     32 O4         -1.9092    6.4393    1.6909 O.3       1 <0>        -0.1718
     33 H1          4.2667  -12.5189    0.3863 H         1 <0>         0.0634
     34 H2          3.4396  -14.1040    0.2138 H         1 <0>         0.0599
     35 H3          2.6972  -12.8074    1.2110 H         1 <0>         0.0550
     36 H4          3.1393  -12.7077   -1.8253 H         1 <0>         0.0839
     37 H5          0.6538  -12.8164   -1.9164 H         1 <0>         0.0590
     38 H6          0.5955  -12.9805   -0.1286 H         1 <0>         0.0590
     39 H7          1.3378  -14.2771   -1.1257 H         1 <0>         0.0679
     40 H8          1.7272  -10.6262   -1.6317 H         1 <0>         0.0667
     41 H9          1.8240  -10.7688    0.1563 H         1 <0>         0.0671
     42 H10         5.7342   -8.8040   -0.8011 H         1 <0>         0.1427
     43 H11         5.7280   -6.3550   -0.6050 H         1 <0>         0.1480
     44 H12         1.4429   -6.3971   -0.3663 H         1 <0>         0.1244
     45 H13         1.4625   -8.8452   -0.5738 H         1 <0>         0.1363
     46 H14         1.4590   -4.6396   -0.2368 H         1 <0>         0.4303
     47 H15         0.2899   -2.6393    0.0788 H         1 <0>         0.4314
     48 H16         2.6462   -0.5207   -1.6139 H         1 <0>         0.1464
     49 H17         2.6229    1.9357   -1.6241 H         1 <0>         0.1428
     50 H18        -0.2543    1.9121    1.5601 H         1 <0>         0.1301
     51 H19        -0.2211   -0.5442    1.5644 H         1 <0>         0.1320
     52 H20        -0.2585    3.6738    1.5343 H         1 <0>         0.4226
     53 H21         1.3649    6.0735    1.0352 H         1 <0>         0.1014
     54 H22         0.0313    6.0533   -0.1680 H         1 <0>         0.0869
     55 H23         0.6797    6.3627    3.6147 H         1 <0>         0.1515
     56 H24        -1.5950    7.1912    4.8126 H         1 <0>         0.1514
     57 H25        -3.4838    7.1326    2.9973 H         1 <0>         0.2056
@<TRIPOS>BOND
     1    1    2 1
     2    1   33 1
     3    1   34 1
     4    1   35 1
     5    2    3 1
     6    2    4 1
     7    2   36 1
     8    3   37 1
     9    3   38 1
    10    3   39 1
    11    4    5 1
    12    4   40 1
    13    4   41 1
    14    5    6 1
    15    6   11 ar
    16    6    7 ar
    17    7    8 ar
    18    7   42 1
    19    8    9 ar
    20    8   43 1
    21    9   10 ar
    22    9   12 1
    23   10   11 ar
    24   10   44 1
    25   11   45 1
    26   12   13 2
    27   12   14 am
    28   14   15 1
    29   14   46 1
    30   15   16 2
    31   15   17 1
    32   17   18 1
    33   17   47 1
    34   18   23 ar
    35   18   19 ar
    36   19   20 ar
    37   19   48 1
    38   20   21 ar
    39   20   49 1
    40   21   22 ar
    41   21   24 1
    42   22   23 ar
    43   22   50 1
    44   23   51 1
    45   24   25 2
    46   24   26 am
    47   26   27 1
    48   26   52 1
    49   27   28 1
    50   27   53 1
    51   27   54 1
    52   28   32 1
    53   28   29 2
    54   29   30 1
    55   29   55 1
    56   30   31 2
    57   30   56 1
    58   31   32 1
    59   31   57 1
@<TRIPOS>MOLECULE
ZINC35292344
   56    58     0     0     0
SMALL
USER_CHARGES

@<TRIPOS>ATOM
      1 C1          0.1975    1.6282    0.0842 C.3       1 <0>        -0.1224
      2 C2         -0.0805    0.1471    0.0692 C.ar      1 <0>        -0.0301
      3 C3         -0.3241   -0.4922   -1.1443 C.ar      1 <0>        -0.1423
      4 C4         -0.5784   -1.8292   -1.1900 C.ar      1 <0>        -0.0284
      5 C5         -0.5951   -2.5746    0.0009 C.ar      1 <0>        -0.1580
      6 C6         -0.8538   -3.9571   -0.0110 C.ar      1 <0>         0.0439
      7 C7         -0.8548   -4.6325    1.2018 C.ar      1 <0>        -0.1303
      8 C8         -0.5987   -3.9166    2.3957 C.ar      1 <0>         0.4666
      9 N1         -0.3599   -2.6233    2.3791 N.ar      1 <0>        -0.5416
     10 C9         -0.3471   -1.9261    1.2365 C.ar      1 <0>         0.2147
     11 C10        -0.0841   -0.5457    1.2413 C.ar      1 <0>        -0.1316
     12 N2         -0.5999   -4.5901    3.6035 N.pl3     1 <0>        -0.7086
     13 C11        -0.3365   -3.8632    4.8478 C.3       1 <0>         0.1198
     14 C12        -0.3960   -4.8347    6.0283 C.3       1 <0>         0.1108
     15 N3         -0.1326   -4.1078    7.2727 N.pl3     1 <0>        -0.6777
     16 C13        -0.1338   -4.7642    8.4498 C.2       1 <0>         0.5597
     17 S1         -0.4432   -6.4476    8.4908 S.2       1 <0>        -0.6196
     18 N4          0.1085   -4.0955    9.5946 N.pl3     1 <0>        -0.6138
     19 C14         0.0183   -4.7594   10.8275 C.ar      1 <0>         0.0496
     20 C15         0.6273   -5.9938   10.9974 C.ar      1 <0>         0.0136
     21 C16         0.5384   -6.6476   12.2116 C.ar      1 <0>        -0.2373
     22 C17        -0.1601   -6.0716   13.2626 C.ar      1 <0>         0.1783
     23 C18        -0.7707   -4.8375   13.0975 C.ar      1 <0>        -0.2429
     24 C19        -0.6782   -4.1768   11.8836 C.ar      1 <0>         0.1685
     25 O1         -1.2712   -2.9639   11.7216 O.3       1 <0>        -0.3157
     26 C20        -1.9684   -2.4270   12.8475 C.3       1 <0>         0.0258
     27 O2         -0.2465   -6.7179   14.4558 O.3       1 <0>        -0.3149
     28 C21         0.4057   -7.9855   14.5557 C.3       1 <0>         0.0251
     29 C22        -1.1131   -6.0404    1.2447 C.1       1 <0>         0.2485
     30 N5         -1.3180   -7.1572    1.2787 N.1       1 <0>        -0.4007
     31 C23        -0.8409   -2.5056   -2.5109 C.3       1 <0>        -0.1260
     32 H1          1.2692    1.7977   -0.0199 H         1 <0>         0.0776
     33 H2         -0.3279    2.1049   -0.7433 H         1 <0>         0.0718
     34 H3         -0.1476    2.0531    1.0268 H         1 <0>         0.0715
     35 H4         -0.3115    0.0798   -2.0603 H         1 <0>         0.1291
     36 H5         -1.0465   -4.4781   -0.9371 H         1 <0>         0.1530
     37 H6          0.1108   -0.0349    2.1727 H         1 <0>         0.1355
     38 H7         -0.7752   -5.5439    3.6267 H         1 <0>         0.4135
     39 H8          0.6532   -3.4089    4.8007 H         1 <0>         0.0789
     40 H9         -1.0878   -3.0846    4.9798 H         1 <0>         0.0790
     41 H10        -1.3857   -5.2890    6.0755 H         1 <0>         0.0956
     42 H11         0.3553   -5.6133    5.8964 H         1 <0>         0.0958
     43 H12         0.0427   -3.1540    7.2495 H         1 <0>         0.4020
     44 H13         0.3453   -3.1553    9.5662 H         1 <0>         0.4083
     45 H14         1.1710   -6.4444   10.1803 H         1 <0>         0.1552
     46 H15         1.0132   -7.6088   12.3423 H         1 <0>         0.1366
     47 H16        -1.3143   -4.3898   13.9163 H         1 <0>         0.1418
     48 H17        -2.7686   -3.1078   13.1377 H         1 <0>         0.0606
     49 H18        -1.2752   -2.3052   13.6798 H         1 <0>         0.0603
     50 H19        -2.3931   -1.4584   12.5837 H         1 <0>         0.1026
     51 H20        -0.0166   -8.6704   13.8204 H         1 <0>         0.0605
     52 H21         1.4719   -7.8614   14.3664 H         1 <0>         0.0591
     53 H22         0.2592   -8.3915   15.5566 H         1 <0>         0.1020
     54 H23         0.1008   -2.8563   -2.9330 H         1 <0>         0.0798
     55 H24        -1.5088   -3.3534   -2.3584 H         1 <0>         0.0706
     56 H25        -1.3047   -1.7964   -3.1964 H         1 <0>         0.0761
@<TRIPOS>BOND
     1    1    2 1
     2    1   32 1
     3    1   33 1
     4    1   34 1
     5    2   11 ar
     6    2    3 ar
     7    3    4 ar
     8    3   35 1
     9    4    5 ar
    10    4   31 1
    11    5   10 ar
    12    5    6 ar
    13    6    7 ar
    14    6   36 1
    15    7    8 ar
    16    7   29 1
    17    8    9 ar
    18    8   12 1
    19    9   10 ar
    20   10   11 ar
    21   11   37 1
    22   12   13 1
    23   12   38 1
    24   13   14 1
    25   13   39 1
    26   13   40 1
    27   14   15 1
    28   14   41 1
    29   14   42 1
    30   15   16 1
    31   15   43 1
    32   16   17 2
    33   16   18 1
    34   18   19 1
    35   18   44 1
    36   19   24 ar
    37   19   20 ar
    38   20   21 ar
    39   20   45 1
    40   21   22 ar
    41   21   46 1
    42   22   23 ar
    43   22   27 1
    44   23   24 ar
    45   23   47 1
    46   24   25 1
    47   25   26 1
    48   26   48 1
    49   26   49 1
    50   26   50 1
    51   27   28 1
    52   28   51 1
    53   28   52 1
    54   28   53 1
    55   29   30 3
    56   31   54 1
    57   31   55 1
    58   31   56 1
@<TRIPOS>MOLECULE
ZINC28519562
   52    54     0     0     0
SMALL
USER_CHARGES

@<TRIPOS>ATOM
      1 C1         -0.0187    1.5258    0.0104 C.3       1 <0>        -0.1521
      2 C2          0.0021   -0.0041    0.0020 C.3       1 <0>         0.0559
      3 O1         -1.3386   -0.4987    0.0122 O.3       1 <0>        -0.3451
      4 C3         -1.4971   -1.8382    0.0065 C.2       1 <0>         0.5309
      5 O2         -0.5226   -2.5659   -0.0067 O.2       1 <0>        -0.4931
      6 C4         -2.8425   -2.4162    0.0162 C.2       1 <0>        -0.1992
      7 C5         -3.5519   -2.7152   -1.2272 C.2       1 <0>        -0.0874
      8 C6         -4.7766   -3.2407   -1.0473 C.2       1 <0>        -0.2458
      9 S1         -4.9704   -3.3335    0.7145 S.3       1 <0>         0.3414
     10 C7         -3.4929   -2.7074    1.2021 C.2       1 <0>         0.0391
     11 N1         -3.0307   -2.5221    2.4957 N.am      1 <0>        -0.6115
     12 C8         -3.8055   -2.8653    3.5437 C.2       1 <0>         0.5353
     13 O3         -4.9071   -3.3362    3.3550 O.2       1 <0>        -0.4783
     14 C9         -3.3030   -2.6639    4.9501 C.3       1 <0>        -0.1076
     15 H1         -2.2285   -2.8444    4.9814 H         1 <0>         0.1273
     16 C10        -3.5920   -1.2286    5.3943 C.3       1 <0>        -0.1456
     17 S2         -4.1435   -3.8225    6.0644 S.3       1 <0>         0.0957
     18 C11        -3.3524   -3.5694    7.6183 C.2       1 <0>        -0.0053
     19 N2         -2.3808   -2.7317    7.9151 N.2       1 <0>        -0.5116
     20 C12        -1.8919   -2.6619    9.1405 C.2       1 <0>         0.0884
     21 C13        -2.4341   -3.4867   10.0683 C.2       1 <0>        -0.1992
     22 S3         -3.6601   -4.3344    9.0855 S.3       1 <0>         0.1966
     23 C14        -2.0988   -3.6418   11.5293 C.3       1 <0>        -0.0496
     24 C15        -2.9459   -2.6968   12.3421 C.2       1 <0>         0.5157
     25 O4         -3.7432   -1.9691   11.7894 O.2       1 <0>        -0.5284
     26 N3         -2.8173   -2.6604   13.6832 N.am      1 <0>        -0.8552
     27 C16        -0.7797   -1.7071    9.4906 C.3       1 <0>        -0.0798
     28 C17        -5.4629   -3.5248   -2.3560 C.3       1 <0>        -0.0309
     29 C18        -4.6691   -2.7068   -3.3986 C.3       1 <0>        -0.1153
     30 C19        -3.2854   -2.5981   -2.7264 C.3       1 <0>        -0.0615
     31 H2          1.0039    1.9031    0.0027 H         1 <0>         0.0814
     32 H3         -0.5459    1.8868   -0.8726 H         1 <0>         0.0680
     33 H4         -0.5289    1.8773    0.9072 H         1 <0>         0.0666
     34 H5          0.5123   -0.3556   -0.8948 H         1 <0>         0.0694
     35 H6          0.5293   -0.3651    0.8851 H         1 <0>         0.0674
     36 H7         -2.1497   -2.1455    2.6466 H         1 <0>         0.4214
     37 H8         -3.2286   -1.0829    6.4115 H         1 <0>         0.0935
     38 H9         -3.0870   -0.5323    4.7248 H         1 <0>         0.0725
     39 H10        -4.6665   -1.0480    5.3630 H         1 <0>         0.0778
     40 H11        -2.2975   -4.6672   11.8408 H         1 <0>         0.1127
     41 H12        -1.0450   -3.4119   11.6867 H         1 <0>         0.1208
     42 H13        -2.1795   -3.2424   14.1253 H         1 <0>         0.4031
     43 H14        -3.3625   -2.0521   14.2064 H         1 <0>         0.4051
     44 H15        -1.2048   -0.7559    9.8109 H         1 <0>         0.0774
     45 H16        -0.1806   -2.1276   10.2982 H         1 <0>         0.0734
     46 H17        -0.1493   -1.5472    8.6159 H         1 <0>         0.0752
     47 H18        -5.4119   -4.5885   -2.5887 H         1 <0>         0.0867
     48 H19        -6.5002   -3.1918   -2.3213 H         1 <0>         0.0819
     49 H20        -4.6017   -3.2424   -4.3455 H         1 <0>         0.0858
     50 H21        -5.1122   -1.7211   -3.5405 H         1 <0>         0.0786
     51 H22        -2.8296   -1.6346   -2.9546 H         1 <0>         0.0740
     52 H23        -2.6393   -3.4104   -3.0595 H         1 <0>         0.0834
@<TRIPOS>BOND
     1    1    2 1
     2    1   31 1
     3    1   32 1
     4    1   33 1
     5    2    3 1
     6    2   34 1
     7    2   35 1
     8    3    4 1
     9    4    5 2
    10    4    6 1
    11    6   10 2
    12    6    7 1
    13    7   30 1
    14    7    8 2
    15    8    9 1
    16    8   28 1
    17    9   10 1
    18   10   11 1
    19   11   12 am
    20   11   36 1
    21   12   13 2
    22   12   14 1
    23   14   15 1
    24   14   16 1
    25   14   17 1
    26   16   37 1
    27   16   38 1
    28   16   39 1
    29   17   18 1
    30   18   22 1
    31   18   19 2
    32   19   20 1
    33   20   21 2
    34   20   27 1
    35   21   22 1
    36   21   23 1
    37   23   24 1
    38   23   40 1
    39   23   41 1
    40   24   25 2
    41   24   26 am
    42   26   42 1
    43   26   43 1
    44   27   44 1
    45   27   45 1
    46   27   46 1
    47   28   29 1
    48   28   47 1
    49   28   48 1
    50   29   30 1
    51   29   49 1
    52   29   50 1
    53   30   51 1
    54   30   52 1
@<TRIPOS>MOLECULE
ZINC02283240
   47    48     0     0     0
SMALL
USER_CHARGES
methyl 2-[4-[(2,4-dichlorobenzoyl)thiocarbamoylamino]-3-methoxy-phenyl]-3,3,3-trifluoro-2-hydroxy-propanoate
@<TRIPOS>ATOM
      1 C1          3.1041    4.1939   -0.2911 C.3       1 <0>         0.0244
      2 O1          3.3916    2.8035   -0.4526 O.3       1 <0>        -0.3154
      3 C2          2.3357    1.9471   -0.4214 C.ar      1 <0>         0.1285
      4 C3          1.0517    2.4342   -0.2390 C.ar      1 <0>        -0.1679
      5 C4         -0.0208    1.5623   -0.2075 C.ar      1 <0>        -0.0988
      6 C5          0.1837    0.2031   -0.3578 C.ar      1 <0>        -0.0973
      7 C6          1.4615   -0.2910   -0.5398 C.ar      1 <0>        -0.0335
      8 C7          2.5426    0.5778   -0.5725 C.ar      1 <0>         0.1192
      9 N1          3.8389    0.0794   -0.7564 N.pl3     1 <0>        -0.6130
     10 C8          4.0701   -0.8714   -1.6832 C.2       1 <0>         0.5097
     11 S1          2.8083   -1.3774   -2.7237 S.2       1 <0>        -0.4724
     12 N2          5.2947   -1.4239   -1.7909 N.am      1 <0>        -0.6377
     13 C9          5.5259   -2.3747   -2.7177 C.2       1 <0>         0.5282
     14 O2          4.6301   -2.7339   -3.4563 O.2       1 <0>        -0.3720
     15 C10         6.8673   -2.9798   -2.8356 C.ar      1 <0>        -0.1291
     16 C11         7.8993   -2.5692   -1.9881 C.ar      1 <0>        -0.0649
     17 C12         9.1494   -3.1379   -2.1031 C.ar      1 <0>        -0.1119
     18 C13         9.3848   -4.1157   -3.0565 C.ar      1 <0>         0.0033
     19 C14         8.3677   -4.5276   -3.9003 C.ar      1 <0>        -0.1089
     20 C15         7.1090   -3.9702   -3.7919 C.ar      1 <0>         0.0289
     21 Cl1         5.8320   -4.4930   -4.8453 Cl        1 <0>        -0.0049
     22 Cl2        10.9626   -4.8268   -3.1937 Cl        1 <0>        -0.0409
     23 C16        -1.4172    2.0953   -0.0151 C.3       1 <0>         0.1566
     24 C17        -2.0023    1.5254    1.2513 C.2       1 <0>         0.4362
     25 O3         -1.5971    0.4724    1.6836 O.2       1 <0>        -0.4568
     26 O4         -2.9737    2.1876    1.8992 O.3       1 <0>        -0.3353
     27 C18        -3.4903    1.5794    3.1122 C.3       1 <0>         0.0314
     28 C19        -2.2868    1.6891   -1.2066 C.3       1 <0>         0.4809
     29 F1         -2.4338    0.2980   -1.2238 F         1 <0>        -0.1607
     30 F2         -3.5451    2.2896   -1.0917 F         1 <0>        -0.1593
     31 F3         -1.6766    2.1083   -2.3937 F         1 <0>        -0.1537
     32 O5         -1.3742    3.5206    0.0793 O.3       1 <0>        -0.5053
     33 H1          4.0319    4.7643   -0.3356 H         1 <0>         0.1051
     34 H2          2.4372    4.5221   -1.0883 H         1 <0>         0.0628
     35 H3          2.6240    4.3559    0.6740 H         1 <0>         0.0589
     36 H4          0.8884    3.4953   -0.1213 H         1 <0>         0.1459
     37 H5         -0.6571   -0.4742   -0.3325 H         1 <0>         0.1460
     38 H6          1.6184   -1.3531   -0.6569 H         1 <0>         0.1551
     39 H7          4.5700    0.4186   -0.2167 H         1 <0>         0.4111
     40 H8          6.0097   -1.1372   -1.2013 H         1 <0>         0.4084
     41 H9          7.7176   -1.8079   -1.2440 H         1 <0>         0.1414
     42 H10         9.9476   -2.8209   -1.4483 H         1 <0>         0.1503
     43 H11         8.5576   -5.2898   -4.6415 H         1 <0>         0.1559
     44 H12        -3.9090    0.6007    2.8781 H         1 <0>         0.0699
     45 H13        -2.6817    1.4654    3.8343 H         1 <0>         0.0686
     46 H14        -4.2679    2.2156    3.5350 H         1 <0>         0.1108
     47 H15        -0.8392    3.8501    0.8143 H         1 <0>         0.4023
@<TRIPOS>BOND
     1    1    2 1
     2    1   33 1
     3    1   34 1
     4    1   35 1
     5    2    3 1
     6    3    8 ar
     7    3    4 ar
     8    4    5 ar
     9    4   36 1
    10    5    6 ar
    11    5   23 1
    12    6    7 ar
    13    6   37 1
    14    7    8 ar
    15    7   38 1
    16    8    9 1
    17    9   10 1
    18    9   39 1
    19   10   11 2
    20   10   12 1
    21   12   13 am
    22   12   40 1
    23   13   14 2
    24   13   15 1
    25   15   20 ar
    26   15   16 ar
    27   16   17 ar
    28   16   41 1
    29   17   18 ar
    30   17   42 1
    31   18   19 ar
    32   18   22 1
    33   19   20 ar
    34   19   43 1
    35   20   21 1
    36   23   24 1
    37   23   28 1
    38   23   32 1
    39   24   25 2
    40   24   26 1
    41   26   27 1
    42   27   44 1
    43   27   45 1
    44   27   46 1
    45   28   29 1
    46   28   30 1
    47   28   31 1
    48   32   47 1
@<TRIPOS>MOLECULE
ZINC13618500
   57    58     0     0     0
SMALL
USER_CHARGES
5-bromo-2-isobutoxy-N-[[3-(2-methoxyethylcarbamoyl)phenyl]carbamothioyl]benzamide
@<TRIPOS>ATOM
      1 C1         -0.7654   -6.1583   -2.0253 C.3       1 <0>        -0.1469
      2 C2         -0.9250   -4.6946   -1.6094 C.3       1 <0>        -0.0922
      3 C3         -1.7588   -4.6162   -0.3290 C.3       1 <0>        -0.1491
      4 C4          0.4546   -4.0826   -1.3579 C.3       1 <0>         0.0539
      5 O1          0.3138   -2.6873   -1.0833 O.3       1 <0>        -0.2704
      6 C5          1.4512   -1.9903   -0.8363 C.ar      1 <0>         0.2140
      7 C6          2.6806   -2.6319   -0.8621 C.ar      1 <0>        -0.2105
      8 C7          3.8369   -1.9231   -0.6045 C.ar      1 <0>        -0.0155
      9 C8          3.7802   -0.5665   -0.3243 C.ar      1 <0>        -0.1400
     10 C9          2.5674    0.0883   -0.3002 C.ar      1 <0>        -0.0214
     11 C10         1.3895   -0.6177   -0.5592 C.ar      1 <0>        -0.1720
     12 C11         0.0886    0.0762   -0.5352 C.2       1 <0>         0.5358
     13 O2         -0.9339   -0.5413   -0.7610 O.2       1 <0>        -0.3745
     14 N1          0.0332    1.3950   -0.2628 N.am      1 <0>        -0.6405
     15 C12        -1.1553    2.0303   -0.2463 C.2       1 <0>         0.5116
     16 S1         -2.5946    1.1622   -0.5713 S.2       1 <0>        -0.4775
     17 N2         -1.2107    3.3491    0.0260 N.pl3     1 <0>        -0.6220
     18 C13        -2.4276    4.0327   -0.0701 C.ar      1 <0>         0.1149
     19 C14        -3.2842    3.7806   -1.1354 C.ar      1 <0>        -0.0442
     20 C15        -4.4900    4.4491   -1.2317 C.ar      1 <0>        -0.1168
     21 C16        -4.8466    5.3799   -0.2770 C.ar      1 <0>        -0.0747
     22 C17        -3.9909    5.6445    0.7935 C.ar      1 <0>        -0.1311
     23 C18        -2.7765    4.9656    0.8939 C.ar      1 <0>        -0.0595
     24 C19        -4.3703    6.6415    1.8174 C.2       1 <0>         0.5625
     25 O3         -3.6234    6.8706    2.7486 O.2       1 <0>        -0.5385
     26 N3         -5.5442    7.2961    1.7182 N.am      1 <0>        -0.7206
     27 C20        -5.9200    8.2839    2.7328 C.3       1 <0>         0.1218
     28 C21        -7.2880    8.8753    2.3866 C.3       1 <0>         0.0460
     29 O4         -8.2832    7.8529    2.4675 O.3       1 <0>        -0.3897
     30 C22        -9.6045    8.3025    2.1610 C.3       1 <0>         0.0300
     31 Br1         5.3735    0.3896    0.0269 Br        1 <0>        -0.0369
     32 H1         -0.2630   -6.7092   -1.2302 H         1 <0>         0.0578
     33 H2         -1.7482   -6.5943   -2.2045 H         1 <0>         0.0670
     34 H3         -0.1713   -6.2142   -2.9375 H         1 <0>         0.0575
     35 H4         -1.4274   -4.1437   -2.4045 H         1 <0>         0.0852
     36 H5         -2.7416   -5.0522   -0.5082 H         1 <0>         0.0579
     37 H6         -1.2564   -5.1671    0.4661 H         1 <0>         0.0514
     38 H7         -1.8725   -3.5734   -0.0328 H         1 <0>         0.0691
     39 H8          1.0786   -4.2179   -2.2413 H         1 <0>         0.0675
     40 H9          0.9207   -4.5755   -0.5048 H         1 <0>         0.0679
     41 H10         2.7330   -3.6886   -1.0792 H         1 <0>         0.1486
     42 H11         4.7914   -2.4282   -0.6218 H         1 <0>         0.1445
     43 H12         2.5275    1.1451   -0.0812 H         1 <0>         0.1376
     44 H13         0.8491    1.8877   -0.0827 H         1 <0>         0.4077
     45 H14        -0.4069    3.8243    0.2886 H         1 <0>         0.4094
     46 H15        -3.0086    3.0566   -1.8879 H         1 <0>         0.1456
     47 H16        -5.1535    4.2457   -2.0593 H         1 <0>         0.1378
     48 H17        -5.7876    5.9036   -0.3584 H         1 <0>         0.1291
     49 H18        -2.1105    5.1659    1.7201 H         1 <0>         0.1394
     50 H19        -6.1402    7.1132    0.9751 H         1 <0>         0.4039
     51 H20        -5.9692    7.8015    3.7089 H         1 <0>         0.0797
     52 H21        -5.1759    9.0800    2.7580 H         1 <0>         0.0863
     53 H22        -7.5279    9.6723    3.0904 H         1 <0>         0.0697
     54 H23        -7.2636    9.2793    1.3746 H         1 <0>         0.0584
     55 H24        -9.8925    9.0876    2.8601 H         1 <0>         0.0435
     56 H25        -9.6282    8.6947    1.1443 H         1 <0>         0.0431
     57 H26       -10.3008    7.4680    2.2448 H         1 <0>         0.0888
@<TRIPOS>BOND
     1    1    2 1
     2    1   32 1
     3    1   33 1
     4    1   34 1
     5    2    3 1
     6    2    4 1
     7    2   35 1
     8    3   36 1
     9    3   37 1
    10    3   38 1
    11    4    5 1
    12    4   39 1
    13    4   40 1
    14    5    6 1
    15    6   11 ar
    16    6    7 ar
    17    7    8 ar
    18    7   41 1
    19    8    9 ar
    20    8   42 1
    21    9   10 ar
    22    9   31 1
    23   10   11 ar
    24   10   43 1
    25   11   12 1
    26   12   13 2
    27   12   14 am
    28   14   15 1
    29   14   44 1
    30   15   16 2
    31   15   17 1
    32   17   18 1
    33   17   45 1
    34   18   23 ar
    35   18   19 ar
    36   19   20 ar
    37   19   46 1
    38   20   21 ar
    39   20   47 1
    40   21   22 ar
    41   21   48 1
    42   22   23 ar
    43   22   24 1
    44   23   49 1
    45   24   25 2
    46   24   26 am
    47   26   27 1
    48   26   50 1
    49   27   28 1
    50   27   51 1
    51   27   52 1
    52   28   29 1
    53   28   53 1
    54   28   54 1
    55   29   30 1
    56   30   55 1
    57   30   56 1
    58   30   57 1
@<TRIPOS>MOLECULE
ZINC16070008
   57    60     0     0     0
SMALL
USER_CHARGES
N-[2-[[(2S)-2-(2-chlorophenyl)-2-(1H-indol-3-yl)ethyl]amino]-2-oxo-ethyl]-2-phenoxy-acetamide
@<TRIPOS>ATOM
      1 C1          4.6153    3.5386   13.3346 C.ar      1 <0>        -0.1569
      2 C2          3.3944    4.1863   13.2936 C.ar      1 <0>        -0.0792
      3 C3          2.7868    4.4410   12.0794 C.ar      1 <0>        -0.1473
      4 C4          3.4027    4.0464   10.9005 C.ar      1 <0>         0.1265
      5 C5          4.6250    3.3916   10.9447 C.ar      1 <0>        -0.2114
      6 C6          5.2309    3.1439   12.1611 C.ar      1 <0>        -0.0798
      7 O1          2.8070    4.2959    9.7048 O.3       1 <0>        -0.2900
      8 C7          3.4986    3.8613    8.5322 C.3       1 <0>         0.0434
      9 C8          2.6923    4.2215    7.3110 C.2       1 <0>         0.5200
     10 O2          1.6301    4.7940    7.4328 O.2       1 <0>        -0.5125
     11 N1          3.1518    3.9074    6.0835 N.am      1 <0>        -0.7162
     12 C9          2.3680    4.2576    4.8963 C.3       1 <0>         0.1009
     13 C10         3.0973    3.7993    3.6598 C.2       1 <0>         0.5124
     14 O3          4.1665    3.2357    3.7603 O.2       1 <0>        -0.5348
     15 N2          2.5615    4.0157    2.4422 N.am      1 <0>        -0.7216
     16 C11         3.2705    3.5702    1.2401 C.3       1 <0>         0.1325
     17 C12         2.4519    3.9358    0.0003 C.3       1 <0>         0.0095
     18 H1          2.2386    5.0047    0.0080 H         1 <0>         0.1034
     19 C13         1.1570    3.1651    0.0080 C.ar      1 <0>        -0.0652
     20 C14         1.1751    1.7829    0.0004 C.ar      1 <0>        -0.1025
     21 C15        -0.0126    1.0758    0.0080 C.ar      1 <0>        -0.1098
     22 C16        -1.2194    1.7505    0.0173 C.ar      1 <0>        -0.1081
     23 C17        -1.2387    3.1322    0.0307 C.ar      1 <0>        -0.1048
     24 C18        -0.0501    3.8406    0.0232 C.ar      1 <0>        -0.0347
     25 Cl1        -0.0736    5.5764    0.0321 Cl        1 <0>        -0.0638
     26 C19         3.2356    3.5889   -1.2393 C.2       1 <0>        -0.1626
     27 C20         3.6814    2.3715   -1.5875 C.2       1 <0>         0.0638
     28 N3          4.3492    2.4426   -2.7797 N.pl3     1 <0>        -0.5915
     29 H2          4.7589    1.6902   -3.2346 H         1 <0>         0.4180
     30 C21         4.3580    3.7421   -3.2346 C.ar      1 <0>         0.0968
     31 C22         3.6608    4.5173   -2.2897 C.ar      1 <0>        -0.0943
     32 C23         3.5091    5.8903   -2.4908 C.ar      1 <0>        -0.0705
     33 C24         4.0395    6.4752   -3.6062 C.ar      1 <0>        -0.1428
     34 C25         4.7284    5.7151   -4.5410 C.ar      1 <0>        -0.0968
     35 C26         4.8899    4.3584   -4.3623 C.ar      1 <0>        -0.1294
     36 H3          5.0887    3.3403   14.2848 H         1 <0>         0.1250
     37 H4          2.9156    4.4936   14.2115 H         1 <0>         0.1311
     38 H5          1.8330    4.9466   12.0478 H         1 <0>         0.1330
     39 H6          5.1042    3.0794   10.0286 H         1 <0>         0.1278
     40 H7          6.1842    2.6375   12.1958 H         1 <0>         0.1261
     41 H8          3.6362    2.7808    8.5711 H         1 <0>         0.0964
     42 H9          4.4716    4.3499    8.4823 H         1 <0>         0.0966
     43 H10         4.0013    3.4496    5.9861 H         1 <0>         0.4141
     44 H11         2.2304    5.3381    4.8575 H         1 <0>         0.1039
     45 H12         1.3949    3.7690    4.9463 H         1 <0>         0.1033
     46 H13         1.7063    4.4664    2.3619 H         1 <0>         0.4042
     47 H14         3.4081    2.4896    1.2790 H         1 <0>         0.0735
     48 H15         4.2435    4.0588    1.1902 H         1 <0>         0.0811
     49 H16         2.1174    1.2553   -0.0118 H         1 <0>         0.1284
     50 H17         0.0021   -0.0041    0.0020 H         1 <0>         0.1294
     51 H18        -2.1471    1.1975    0.0187 H         1 <0>         0.1326
     52 H19        -2.1814    3.6591    0.0422 H         1 <0>         0.1351
     53 H20         3.5326    1.4691   -1.0131 H         1 <0>         0.1685
     54 H21         2.9749    6.4882   -1.7673 H         1 <0>         0.1201
     55 H22         3.9219    7.5375   -3.7613 H         1 <0>         0.1230
     56 H23         5.1425    6.1919   -5.4171 H         1 <0>         0.1258
     57 H24         5.4273    3.7755   -5.0956 H         1 <0>         0.1203
@<TRIPOS>BOND
     1    1    6 ar
     2    1    2 ar
     3    1   36 1
     4    2    3 ar
     5    2   37 1
     6    3    4 ar
     7    3   38 1
     8    4    5 ar
     9    4    7 1
    10    5    6 ar
    11    5   39 1
    12    6   40 1
    13    7    8 1
    14    8    9 1
    15    8   41 1
    16    8   42 1
    17    9   10 2
    18    9   11 am
    19   11   12 1
    20   11   43 1
    21   12   13 1
    22   12   44 1
    23   12   45 1
    24   13   14 2
    25   13   15 am
    26   15   16 1
    27   15   46 1
    28   16   17 1
    29   16   47 1
    30   16   48 1
    31   17   18 1
    32   17   19 1
    33   17   26 1
    34   19   24 ar
    35   19   20 ar
    36   20   21 ar
    37   20   49 1
    38   21   22 ar
    39   21   50 1
    40   22   23 ar
    41   22   51 1
    42   23   24 ar
    43   23   52 1
    44   24   25 1
    45   26   31 1
    46   26   27 2
    47   27   28 1
    48   27   53 1
    49   28   29 1
    50   28   30 1
    51   30   35 ar
    52   30   31 ar
    53   31   32 ar
    54   32   33 ar
    55   32   54 1
    56   33   34 ar
    57   33   55 1
    58   34   35 ar
    59   34   56 1
    60   35   57 1
@<TRIPOS>MOLECULE
ZINC36773145
   45    47     0     0     0
SMALL
USER_CHARGES

@<TRIPOS>ATOM
      1 C1         -0.1462    1.3736   -1.5501 C.ar      1 <0>        -0.0221
      2 C2          1.0199    2.0738   -1.7733 C.ar      1 <0>        -0.1597
      3 C3          2.2085    1.3941   -1.9919 C.ar      1 <0>         0.1343
      4 C4          2.2313    0.0078   -1.9868 C.ar      1 <0>        -0.1586
      5 C5          1.0711   -0.7023   -1.7641 C.ar      1 <0>        -0.0541
      6 C6         -0.1289   -0.0228   -1.5439 C.ar      1 <0>        -0.1446
      7 C7         -1.3755   -0.7785   -1.3047 C.2       1 <0>         0.5670
      8 O1         -2.4189   -0.1848   -1.1129 O.2       1 <0>        -0.5278
      9 N1         -1.3561   -2.1261   -1.2993 N.am      1 <0>        -0.5178
     10 N2         -2.5384   -2.8427   -1.0724 N.am      1 <0>        -0.5117
     11 C8         -2.5190   -4.1904   -1.0670 C.2       1 <0>         0.5399
     12 O2         -1.4781   -4.7826   -1.2584 O.2       1 <0>        -0.5198
     13 C9         -3.7907   -4.9613   -0.8230 C.3       1 <0>        -0.1547
     14 S1         -3.4393   -6.7401   -0.8769 S.3       1 <0>         0.1423
     15 C10        -5.0041   -7.4930   -0.5780 C.2       1 <0>         0.0248
     16 N3         -6.1774   -6.9275   -0.3675 N.2       1 <0>        -0.2771
     17 N4         -7.2866   -7.7125   -0.1526 N.2       1 <0>        -0.3515
     18 C11        -7.1719   -9.0263   -0.1581 C.2       1 <0>         0.3329
     19 S2         -5.4275   -9.2259   -0.4868 S.3       1 <0>         0.0306
     20 N5         -8.1485   -9.9966    0.0351 N.pl3     1 <0>        -0.6042
     21 C12        -9.4928   -9.6232    0.1512 C.ar      1 <0>         0.1633
     22 C13       -10.3777  -10.4258    0.8599 C.ar      1 <0>        -0.1287
     23 C14       -11.7033  -10.0578    0.9745 C.ar      1 <0>        -0.0615
     24 C15       -12.1523   -8.8845    0.3812 C.ar      1 <0>        -0.1107
     25 C16       -11.2670   -8.0816   -0.3273 C.ar      1 <0>        -0.0901
     26 C17        -9.9404   -8.4474   -0.4376 C.ar      1 <0>        -0.1105
     27 S3        -13.8443   -8.4150    0.5267 S.3       1 <0>        -0.0934
     28 C18       -13.9465   -6.8524   -0.3889 C.3       1 <0>         0.2718
     29 F1        -13.0872   -5.9140    0.1927 F         1 <0>        -0.1790
     30 F2        -13.5714   -7.0663   -1.7196 F         1 <0>        -0.1801
     31 F3          3.3485    2.0852   -2.2110 F         1 <0>        -0.1295
     32 H1         -1.0708    1.9040   -1.3759 H         1 <0>         0.1509
     33 H2          1.0077    3.1537   -1.7783 H         1 <0>         0.1482
     34 H3          3.1598   -0.5167   -2.1579 H         1 <0>         0.1473
     35 H4          1.0899   -1.7821   -1.7607 H         1 <0>         0.1383
     36 H5         -0.5236   -2.5998   -1.4524 H         1 <0>         0.4337
     37 H6         -3.3709   -2.3691   -0.9194 H         1 <0>         0.4383
     38 H7         -4.1920   -4.6997    0.1561 H         1 <0>         0.1369
     39 H8         -4.5204   -4.7115   -1.5932 H         1 <0>         0.1370
     40 H9         -7.8985  -10.9322    0.0895 H         1 <0>         0.4331
     41 H10       -10.0287  -11.3379    1.3211 H         1 <0>         0.1387
     42 H11       -12.3915  -10.6822    1.5249 H         1 <0>         0.1390
     43 H12       -11.6158   -7.1695   -0.7886 H         1 <0>         0.1316
     44 H13        -9.2513   -7.8213   -0.9848 H         1 <0>         0.1477
     45 H14       -14.9696   -6.4779   -0.3555 H         1 <0>         0.1597
@<TRIPOS>BOND
     1    1    6 ar
     2    1    2 ar
     3    1   32 1
     4    2    3 ar
     5    2   33 1
     6    3    4 ar
     7    3   31 1
     8    4    5 ar
     9    4   34 1
    10    5    6 ar
    11    5   35 1
    12    6    7 1
    13    7    8 2
    14    7    9 am
    15    9   10 1
    16    9   36 1
    17   10   11 am
    18   10   37 1
    19   11   12 2
    20   11   13 1
    21   13   14 1
    22   13   38 1
    23   13   39 1
    24   14   15 1
    25   15   19 1
    26   15   16 2
    27   16   17 1
    28   17   18 2
    29   18   19 1
    30   18   20 1
    31   20   21 1
    32   20   40 1
    33   21   26 ar
    34   21   22 ar
    35   22   23 ar
    36   22   41 1
    37   23   24 ar
    38   23   42 1
    39   24   25 ar
    40   24   27 1
    41   25   26 ar
    42   25   43 1
    43   26   44 1
    44   27   28 1
    45   28   29 1
    46   28   30 1
    47   28   45 1
@<TRIPOS>MOLECULE
ZINC45358262
   64    67     0     0     0
SMALL
USER_CHARGES

@<TRIPOS>ATOM
      1 C1         -4.4994   -0.3437   -1.3388 C.3       1 <0>        -0.1750
      2 C2         -3.0726   -0.5433   -0.8238 C.3       1 <0>         0.1259
      3 C3         -2.6789    0.6420    0.0600 C.3       1 <0>        -0.1866
      4 C4         -3.0015   -1.8347   -0.0064 C.3       1 <0>        -0.1254
      5 C5         -1.5602   -2.0709    0.4496 C.3       1 <0>         0.0605
      6 H1         -1.1975   -1.1896    0.9786 H         1 <0>         0.1225
      7 C6         -1.5135   -3.2636    1.3695 C.2       1 <0>         0.4844
      8 O1         -0.8391   -4.2285    1.0776 O.2       1 <0>        -0.5139
      9 N1         -2.2212   -3.2582    2.5165 N.am      1 <0>        -0.6885
     10 C7         -2.1757   -4.4177    3.4108 C.3       1 <0>         0.1788
     11 C8         -3.4492   -5.2547    3.5475 C.3       1 <0>        -0.1519
     12 C9         -3.0010   -4.3503    4.6974 C.3       1 <0>        -0.1434
     13 C10        -0.8868   -5.1264    3.4664 C.1       1 <0>         0.2365
     14 N2          0.1079   -5.6734    3.5093 N.1       1 <0>        -0.3941
     15 N3         -0.7109   -2.3227   -0.7223 N.3       1 <0>        -0.6296
     16 C11         0.7051   -2.0941   -0.4050 C.3       1 <0>         0.0927
     17 H2          0.8833   -2.3215    0.6460 H         1 <0>         0.0959
     18 C12         1.5629   -2.9866   -1.2646 C.ar      1 <0>        -0.0977
     19 C13         1.2358   -3.1841   -2.5940 C.ar      1 <0>        -0.0903
     20 C14         2.0178   -4.0003   -3.3858 C.ar      1 <0>        -0.0794
     21 C15         3.1387   -4.6261   -2.8436 C.ar      1 <0>        -0.0369
     22 C16         3.4635   -4.4235   -1.5036 C.ar      1 <0>        -0.1009
     23 C17         2.6776   -3.6006   -0.7226 C.ar      1 <0>        -0.0886
     24 C18         3.9828   -5.5050   -3.6896 C.ar      1 <0>         0.1658
     25 C19         5.0985   -6.1310   -3.1375 C.ar      1 <0>        -0.1515
     26 C20         5.8765   -6.9481   -3.9391 C.ar      1 <0>        -0.0702
     27 C21         5.5127   -7.1125   -5.2683 C.ar      1 <0>        -0.1259
     28 C22         4.3927   -6.4608   -5.7503 C.ar      1 <0>         0.1153
     29 N4          3.6662   -5.6927   -4.9640 N.ar      1 <0>        -0.4662
     30 C23         6.3310   -7.9925   -6.1777 C.3       1 <0>         0.0930
     31 C24         6.5346   -7.5229   -7.6196 C.3       1 <0>        -0.1852
     32 C25         5.6010   -8.6981   -7.3224 C.3       1 <0>        -0.1508
     33 O2          7.4092   -8.6915   -5.5525 O.3       1 <0>        -0.5204
     34 C26         1.0589   -0.6307   -0.6773 C.3       1 <0>         0.4624
     35 F1          0.3499    0.1923    0.2044 F         1 <0>        -0.1846
     36 F2          2.4322   -0.4404   -0.4905 F         1 <0>        -0.1812
     37 F3          0.7180   -0.3058   -1.9946 F         1 <0>        -0.1613
     38 F4         -2.1930   -0.6288   -1.9083 F         1 <0>        -0.1845
     39 H3         -4.5501    0.5764   -1.9211 H         1 <0>         0.0696
     40 H4         -4.7799   -1.1881   -1.9685 H         1 <0>         0.0676
     41 H5         -5.1848   -0.2771   -0.4938 H         1 <0>         0.0720
     42 H6         -3.3934    0.7388    0.8775 H         1 <0>         0.0715
     43 H7         -1.6814    0.4762    0.4669 H         1 <0>         0.0748
     44 H8         -2.6815    1.5554   -0.5349 H         1 <0>         0.0699
     45 H9         -3.6491   -1.7486    0.8660 H         1 <0>         0.0909
     46 H10        -3.3299   -2.6725   -0.6215 H         1 <0>         0.0877
     47 H11        -2.7606   -2.4865    2.7499 H         1 <0>         0.4148
     48 H12        -4.3208   -4.9426    2.9722 H         1 <0>         0.1189
     49 H13        -3.3327   -6.3305    3.6786 H         1 <0>         0.1124
     50 H14        -2.5896   -4.8311    5.5849 H         1 <0>         0.1168
     51 H15        -3.5777   -3.4432    4.8785 H         1 <0>         0.1208
     52 H16        -0.8554   -3.2551   -1.0799 H         1 <0>         0.3738
     53 H17         0.3666   -2.6989   -3.0130 H         1 <0>         0.1416
     54 H18         1.7613   -4.1541   -4.4236 H         1 <0>         0.1402
     55 H19         4.3311   -4.9060   -1.0783 H         1 <0>         0.1303
     56 H20         2.9310   -3.4391    0.3148 H         1 <0>         0.1265
     57 H21         5.3528   -5.9805   -2.0987 H         1 <0>         0.1420
     58 H22         6.7473   -7.4463   -3.5394 H         1 <0>         0.1386
     59 H23         4.1068   -6.5866   -6.7842 H         1 <0>         0.1605
     60 H24         6.0767   -6.5775   -7.9104 H         1 <0>         0.1036
     61 H25         7.4913   -7.7470   -8.0915 H         1 <0>         0.1078
     62 H26         5.9435   -9.6953   -7.5988 H         1 <0>         0.1085
     63 H27         4.5290   -8.5258   -7.4177 H         1 <0>         0.1082
     64 H28         7.8349   -8.1991   -4.8374 H         1 <0>         0.3810
@<TRIPOS>BOND
     1    1    2 1
     2    1   39 1
     3    1   40 1
     4    1   41 1
     5    2    3 1
     6    2    4 1
     7    2   38 1
     8    3   42 1
     9    3   43 1
    10    3   44 1
    11    4    5 1
    12    4   45 1
    13    4   46 1
    14    5    6 1
    15    5    7 1
    16    5   15 1
    17    7    8 2
    18    7    9 am
    19    9   10 1
    20    9   47 1
    21   10   12 1
    22   10   11 1
    23   10   13 1
    24   11   12 1
    25   11   48 1
    26   11   49 1
    27   12   50 1
    28   12   51 1
    29   13   14 3
    30   15   16 1
    31   15   52 1
    32   16   17 1
    33   16   18 1
    34   16   34 1
    35   18   23 ar
    36   18   19 ar
    37   19   20 ar
    38   19   53 1
    39   20   21 ar
    40   20   54 1
    41   21   22 ar
    42   21   24 1
    43   22   23 ar
    44   22   55 1
    45   23   56 1
    46   24   29 ar
    47   24   25 ar
    48   25   26 ar
    49   25   57 1
    50   26   27 ar
    51   26   58 1
    52   27   28 ar
    53   27   30 1
    54   28   29 ar
    55   28   59 1
    56   30   32 1
    57   30   31 1
    58   30   33 1
    59   31   32 1
    60   31   60 1
    61   31   61 1
    62   32   62 1
    63   32   63 1
    64   33   64 1
    65   34   35 1
    66   34   36 1
    67   34   37 1
@<TRIPOS>MOLECULE
ZINC36258064
   36    38     0     0     0
SMALL
USER_CHARGES

@<TRIPOS>ATOM
      1 C1          0.3708    0.7375   -0.9578 C.3       1 <0>        -0.1683
      2 C2          1.1092   -0.6008   -0.8897 C.3       1 <0>         0.1345
      3 H1          2.0513   -0.5302   -1.4334 H         1 <0>         0.0890
      4 C3          0.2375   -1.7072   -1.5017 C.3       1 <0>        -0.1343
      5 C4          0.3590   -2.8997   -0.5274 C.3       1 <0>        -0.1235
      6 H2          1.0723   -3.6543   -0.8590 H         1 <0>         0.1396
      7 C5         -1.0586   -3.4643   -0.2926 C.3       1 <0>         0.0011
      8 N1         -1.6752   -2.5766    0.7125 N.4       1 <0>        -0.5167
      9 C6         -0.5973   -2.0641    1.5766 C.3       1 <0>        -0.0092
     10 C7          0.7454   -2.2388    0.8167 C.3       1 <0>         0.1459
     11 H3          1.4258   -2.8816    1.3752 H         1 <0>         0.1271
     12 N2          1.3690   -0.9534    0.5092 N.am      1 <0>        -0.6159
     13 C8          2.0762   -0.2056    1.3793 C.2       1 <0>         0.6243
     14 O1          2.1319    1.0015    1.2389 O.2       1 <0>        -0.4936
     15 C9          2.7807   -0.8489    2.4987 C.2       1 <0>        -0.3439
     16 C10         4.0726   -0.4870    2.8271 C.2       1 <0>         0.2692
     17 N3          4.6917   -1.1026    3.8677 N.am      1 <0>        -0.6203
     18 H4          5.5989   -0.8476    4.0975 H         1 <0>         0.4505
     19 C11         4.0763   -2.0553    4.5857 C.2       1 <0>         0.6941
     20 O2          4.6740   -2.5752    5.5076 O.2       1 <0>        -0.5078
     21 N4          2.8206   -2.4527    4.3183 N.am      1 <0>        -0.6472
     22 H5          2.4085   -3.1442    4.8596 H         1 <0>         0.4409
     23 C12         2.1272   -1.8923    3.3049 C.2       1 <0>         0.5751
     24 O3          0.9883   -2.2446    3.0611 O.2       1 <0>        -0.5306
     25 H6          1.0259    1.5325   -0.6016 H         1 <0>         0.0841
     26 H7          0.0806    0.9403   -1.9887 H         1 <0>         0.0704
     27 H8         -0.5203    0.6930   -0.3316 H         1 <0>         0.0518
     28 H9         -0.7994   -1.3780   -1.5697 H         1 <0>         0.0795
     29 H10         0.6131   -1.9835   -2.4869 H         1 <0>         0.1036
     30 H11        -1.6322   -3.4406   -1.2192 H         1 <0>         0.1393
     31 H12        -1.0001   -4.4834    0.0896 H         1 <0>         0.1376
     32 H13        -2.1388   -1.8079    0.2516 H         1 <0>         0.4241
     33 H14        -0.7655   -1.0087    1.7907 H         1 <0>         0.1260
     34 H15        -0.5684   -2.6311    2.5070 H         1 <0>         0.1701
     35 H16         4.5854    0.2773    2.2620 H         1 <0>         0.1996
     36 H17        -2.3397   -3.0961    1.2661 H         1 <0>         0.4339
@<TRIPOS>BOND
     1    1    2 1
     2    1   25 1
     3    1   26 1
     4    1   27 1
     5    2    3 1
     6    2   12 1
     7    2    4 1
     8    4    5 1
     9    4   28 1
    10    4   29 1
    11    5    6 1
    12    5   10 1
    13    5    7 1
    14    7    8 1
    15    7   30 1
    16    7   31 1
    17    8    9 1
    18    8   32 1
    19    8   36 1
    20    9   10 1
    21    9   33 1
    22    9   34 1
    23   10   11 1
    24   10   12 1
    25   12   13 am
    26   13   14 2
    27   13   15 1
    28   15   23 1
    29   15   16 2
    30   16   17 1
    31   16   35 1
    32   17   18 1
    33   17   19 am
    34   19   20 2
    35   19   21 am
    36   21   22 1
    37   21   23 am
    38   23   24 2
@<TRIPOS>MOLECULE
ZINC41664705
   24    24     0     0     0
SMALL
USER_CHARGES

@<TRIPOS>ATOM
      1 C1         -0.0159    1.3190    0.0093 C.ar      1 <0>         0.2762
      2 C2          1.1856    2.0100    0.0015 C.ar      1 <0>        -0.8142
      3 C3          2.3651    1.2824   -0.0136 C.ar      1 <0>         0.2649
      4 N1          2.3062   -0.0396   -0.0202 N.ar      1 <0>        -0.5124
      5 C4          1.1442   -0.6641   -0.0124 C.ar      1 <0>         0.4138
      6 N2          0.0021   -0.0041    0.0020 N.ar      1 <0>        -0.5094
      7 Cl1         1.1174   -2.3999   -0.0215 Cl        1 <0>         0.0637
      8 S1          1.2128    3.7717    0.0102 S.o2      1 <0>         2.7132
      9 O1          2.4591    4.1614   -0.5504 O.2       1 <0>        -0.9319
     10 O2         -0.0312    4.1998   -0.5269 O.2       1 <0>        -0.9233
     11 N3          1.2352    4.2533    1.5944 N.pl3     1 <0>        -1.1136
     12 C5          2.3883    3.9357    2.4404 C.3       1 <0>         0.0838
     13 C6          2.3401    4.7887    3.7096 C.3       1 <0>        -0.0151
     14 N4          3.4964    4.4702    4.5579 N.4       1 <0>        -0.6347
     15 H1         -0.9543    1.8534    0.0256 H         1 <0>         0.1998
     16 H2          3.3196    1.7876   -0.0204 H         1 <0>         0.1959
     17 H3          0.4848    4.7457    1.9623 H         1 <0>         0.4309
     18 H4          2.3608    2.8801    2.7107 H         1 <0>         0.0877
     19 H5          3.3081    4.1472    1.8952 H         1 <0>         0.1084
     20 H6          2.3676    5.8442    3.4392 H         1 <0>         0.1475
     21 H7          1.4203    4.5771    4.2548 H         1 <0>         0.1441
     22 H8          3.4709    3.4930    4.8081 H         1 <0>         0.4384
     23 H9          4.3478    4.6660    4.0532 H         1 <0>         0.4403
     24 H10         3.4646    5.0327    5.3949 H         1 <0>         0.4461
@<TRIPOS>BOND
     1    1    6 ar
     2    1    2 ar
     3    1   15 1
     4    2    3 ar
     5    2    8 1
     6    3    4 ar
     7    3   16 1
     8    4    5 ar
     9    5    6 ar
    10    5    7 1
    11    8    9 2
    12    8   10 2
    13    8   11 1
    14   11   12 1
    15   11   17 1
    16   12   13 1
    17   12   18 1
    18   12   19 1
    19   13   14 1
    20   13   20 1
    21   13   21 1
    22   14   22 1
    23   14   23 1
    24   14   24 1
@<TRIPOS>MOLECULE
ZINC50395690
   42    44     0     0     0
SMALL
USER_CHARGES

@<TRIPOS>ATOM
      1 C1         -0.4475    1.7828    0.0852 C.ar      1 <0>        -0.1012
      2 C2          0.6688    2.5974    0.0460 C.ar      1 <0>        -0.1074
      3 C3          1.9243    2.0459   -0.1594 C.ar      1 <0>         0.0736
      4 C4          2.0574    0.6719   -0.3235 C.ar      1 <0>         0.0579
      5 C5          0.9336   -0.1393   -0.2843 C.ar      1 <0>        -0.0954
      6 C6         -0.3154    0.4171   -0.0806 C.ar      1 <0>        -0.1417
      7 C7         -1.5350   -0.4671   -0.0388 C.3       1 <0>         0.1422
      8 H1         -1.3120   -1.4169   -0.5250 H         1 <0>         0.1325
      9 C8         -1.9318   -0.7202    1.4170 C.3       1 <0>        -0.0448
     10 N1         -3.0458   -1.6768    1.4617 N.4       1 <0>        -0.4938
     11 C9         -3.5088   -1.8248    2.8480 C.3       1 <0>         0.0154
     12 H2         -3.7523   -0.8434    3.2551 H         1 <0>         0.1700
     13 C10        -2.4005   -2.4633    3.6888 C.3       1 <0>        -0.1473
     14 C11        -2.9903   -2.8596    5.0477 C.3       1 <0>        -0.1353
     15 C12        -3.9934   -3.9938    4.8340 C.3       1 <0>         0.0906
     16 N2         -4.9428   -3.6444    3.7847 N.am      1 <0>        -0.6906
     17 C13        -4.7332   -2.6939    2.8748 C.2       1 <0>         0.5029
     18 O1         -5.5791   -2.5203    2.0232 O.2       1 <0>        -0.5291
     19 O2         -2.6132    0.1759   -0.7216 O.3       1 <0>        -0.5437
     20 O3          3.2813    0.1092   -0.5185 O.3       1 <0>        -0.3044
     21 C14         4.3366    0.9882   -0.9231 C.3       1 <0>         0.0186
     22 C15         4.2909    2.2365   -0.0315 C.3       1 <0>         0.0183
     23 O4          3.0136    2.8610   -0.1996 O.3       1 <0>        -0.3013
     24 H3         -1.4239    2.2139    0.2500 H         1 <0>         0.1327
     25 H4          0.5628    3.6644    0.1751 H         1 <0>         0.1442
     26 H5          1.0340   -1.2068   -0.4137 H         1 <0>         0.1398
     27 H6         -1.0798   -1.1290    1.9601 H         1 <0>         0.1480
     28 H7         -2.2401    0.2183    1.8779 H         1 <0>         0.1412
     29 H8         -3.8036   -1.3376    0.8884 H         1 <0>         0.4432
     30 H9         -2.0195   -3.3496    3.1816 H         1 <0>         0.0980
     31 H10        -1.5917   -1.7472    3.8346 H         1 <0>         0.1077
     32 H11        -2.1919   -3.1971    5.7085 H         1 <0>         0.1128
     33 H12        -3.4969   -2.0020    5.4906 H         1 <0>         0.0884
     34 H13        -3.4580   -4.8993    4.5484 H         1 <0>         0.0860
     35 H14        -4.5340   -4.1764    5.7627 H         1 <0>         0.1001
     36 H15        -5.7784   -4.1354    3.7457 H         1 <0>         0.4217
     37 H16        -2.8659    1.0288   -0.3423 H         1 <0>         0.3897
     38 H17         5.2976    0.4874   -0.8053 H         1 <0>         0.1313
     39 H18         4.1965    1.2755   -1.9651 H         1 <0>         0.0844
     40 H19         4.4248    1.9485    1.0112 H         1 <0>         0.0836
     41 H20         5.0800    2.9281   -0.3266 H         1 <0>         0.1315
     42 H21        -2.7350   -2.5714    1.1136 H         1 <0>         0.4296
@<TRIPOS>BOND
     1    1    6 ar
     2    1    2 ar
     3    1   24 1
     4    2    3 ar
     5    2   25 1
     6    3   23 1
     7    3    4 ar
     8    4    5 ar
     9    4   20 1
    10    5    6 ar
    11    5   26 1
    12    6    7 1
    13    7    8 1
    14    7    9 1
    15    7   19 1
    16    9   10 1
    17    9   27 1
    18    9   28 1
    19   10   11 1
    20   10   29 1
    21   10   42 1
    22   11   12 1
    23   11   17 1
    24   11   13 1
    25   13   14 1
    26   13   30 1
    27   13   31 1
    28   14   15 1
    29   14   32 1
    30   14   33 1
    31   15   16 1
    32   15   34 1
    33   15   35 1
    34   16   17 am
    35   16   36 1
    36   17   18 2
    37   19   37 1
    38   20   21 1
    39   21   22 1
    40   21   38 1
    41   21   39 1
    42   22   23 1
    43   22   40 1
    44   22   41 1
@<TRIPOS>MOLECULE
ZINC62382990
   46    47     0     0     0
SMALL
USER_CHARGES

@<TRIPOS>ATOM
      1 C1         -0.2515   -6.8189   -3.3311 C.3       1 <0>        -0.1538
      2 C2         -0.8149   -5.9361   -2.2157 C.3       1 <0>        -0.1046
      3 C3         -0.0962   -4.5839   -2.2203 C.3       1 <0>        -0.1422
      4 C4         -0.6081   -3.7363   -1.0538 C.3       1 <0>        -0.0098
      5 N1         -0.3424   -4.4290    0.2127 N.4       1 <0>        -0.3860
      6 C5         -1.0859   -5.6939    0.2542 C.3       1 <0>        -0.0076
      7 C6         -0.5923   -6.6169   -0.8621 C.3       1 <0>        -0.1416
      8 C7         -0.7647   -3.5776    1.3329 C.3       1 <0>         0.0474
      9 C8         -0.3603   -4.2218    2.6338 C.2       1 <0>         0.0208
     10 C9         -1.2902   -4.8587    3.3847 C.2       1 <0>         0.0445
     11 C10        -0.8973   -5.4613    4.6066 C.2       1 <0>         0.3601
     12 O1         -1.7140   -6.0438    5.3061 O.2       1 <0>        -0.4926
     13 C11         0.4572   -5.3755    4.9993 C.2       1 <0>        -0.2614
     14 C12         1.3369   -4.7254    4.2049 C.2       1 <0>         0.1910
     15 N2          0.9350   -4.1632    3.0399 N.pl3     1 <0>        -0.4584
     16 C13         1.9177   -3.4719    2.2017 C.3       1 <0>         0.0829
     17 C14         1.9236   -1.9813    2.5465 C.3       1 <0>         0.0522
     18 O2          2.3907   -1.8039    3.8853 O.3       1 <0>        -0.5652
     19 C15         2.7832   -4.6301    4.6176 C.3       1 <0>         0.1040
     20 O3          2.9666   -5.2967    5.8682 O.3       1 <0>        -0.5578
     21 O4         -2.5856   -4.9191    2.9719 O.3       1 <0>        -0.4672
     22 H1         -0.7589   -7.7835   -3.3224 H         1 <0>         0.0683
     23 H2         -0.4105   -6.3334   -4.2940 H         1 <0>         0.0681
     24 H3          0.8163   -6.9686   -3.1717 H         1 <0>         0.0614
     25 H4         -1.8823   -5.7835   -2.3757 H         1 <0>         0.0910
     26 H5          0.9769   -4.7417   -2.1122 H         1 <0>         0.0873
     27 H6         -0.2961   -4.0687   -3.1599 H         1 <0>         0.1159
     28 H7         -0.0986   -2.7727   -1.0542 H         1 <0>         0.1311
     29 H8         -1.6812   -3.5789   -1.1631 H         1 <0>         0.1349
     30 H9         -0.9290   -6.1756    1.2193 H         1 <0>         0.1266
     31 H10        -2.1487   -5.4948    0.1170 H         1 <0>         0.1361
     32 H11        -1.1467   -7.5548   -0.8307 H         1 <0>         0.1144
     33 H12         0.4705   -6.8169   -0.7257 H         1 <0>         0.0856
     34 H13        -0.2876   -2.6013    1.2471 H         1 <0>         0.1399
     35 H14        -1.8476   -3.4562    1.3088 H         1 <0>         0.1632
     36 H15         0.7863   -5.8244    5.9248 H         1 <0>         0.1708
     37 H16         2.9078   -3.8905    2.3823 H         1 <0>         0.1237
     38 H17         1.6547   -3.6009    1.1518 H         1 <0>         0.0829
     39 H18         2.5827   -1.4518    1.8585 H         1 <0>         0.0784
     40 H19         0.9123   -1.5841    2.4589 H         1 <0>         0.0561
     41 H20         2.4208   -0.8809    4.1723 H         1 <0>         0.3985
     42 H21         3.4091   -5.1011    3.8596 H         1 <0>         0.0696
     43 H22         3.0634   -3.5818    4.7201 H         1 <0>         0.1038
     44 H23         3.8762   -5.2752    6.1957 H         1 <0>         0.3996
     45 H24        -3.1697   -5.3952    3.5779 H         1 <0>         0.4263
     46 H25         0.6457   -4.6181    0.2906 H         1 <0>         0.4117
@<TRIPOS>BOND
     1    1    2 1
     2    1   22 1
     3    1   23 1
     4    1   24 1
     5    2    7 1
     6    2    3 1
     7    2   25 1
     8    3    4 1
     9    3   26 1
    10    3   27 1
    11    4    5 1
    12    4   28 1
    13    4   29 1
    14    5    6 1
    15    5    8 1
    16    5   46 1
    17    6    7 1
    18    6   30 1
    19    6   31 1
    20    7   32 1
    21    7   33 1
    22    8    9 1
    23    8   34 1
    24    8   35 1
    25    9   15 1
    26    9   10 2
    27   10   11 1
    28   10   21 1
    29   11   12 2
    30   11   13 1
    31   13   14 2
    32   13   36 1
    33   14   15 1
    34   14   19 1
    35   15   16 1
    36   16   17 1
    37   16   37 1
    38   16   38 1
    39   17   18 1
    40   17   39 1
    41   17   40 1
    42   18   41 1
    43   19   20 1
    44   19   42 1
    45   19   43 1
    46   20   44 1
    47   21   45 1
@<TRIPOS>MOLECULE
ZINC63125503
   40    40     0     0     0
SMALL
USER_CHARGES

@<TRIPOS>ATOM
      1 C1         -0.0178    1.4648    0.0101 C.3       1 <0>        -0.0472
      2 N1          0.0021   -0.0041    0.0020 N.4       1 <0>        -0.3843
      3 C2          0.6815   -0.4760   -1.2105 C.3       1 <0>        -0.0056
      4 C3          0.6339   -2.0045   -1.2642 C.3       1 <0>        -0.1405
      5 C4          1.3359   -2.5754   -0.0287 C.3       1 <0>        -0.1184
      6 C5          0.6658   -2.0178    1.2303 C.3       1 <0>        -0.1462
      7 C6          0.7122   -0.4888    1.1916 C.3       1 <0>        -0.0064
      8 C7          1.2229   -4.1013   -0.0354 C.3       1 <0>         0.1228
      9 N2          1.9952   -4.6530    1.0805 N.am      1 <0>        -0.6262
     10 C8          1.3568   -4.8563    2.3834 C.3       1 <0>         0.0662
     11 C9          3.2929   -4.9736    0.9086 C.2       1 <0>         0.5113
     12 O1          3.8214   -4.8053   -0.1700 O.2       1 <0>        -0.4745
     13 C10         4.0873   -5.5412    2.0566 C.3       1 <0>        -0.0800
     14 C11         5.4994   -5.8117    1.6050 C.2       1 <0>         0.3427
     15 N3          5.8498   -5.5517    0.3891 N.2       1 <0>        -0.3599
     16 O2          7.1766   -5.8059   -0.0351 O.3       1 <0>        -0.4364
     17 N4          6.4164   -6.3361    2.4887 N.pl3     1 <0>        -0.8737
     18 H1          1.0047    1.8421    0.0024 H         1 <0>         0.1211
     19 H2         -0.5450    1.8259   -0.8730 H         1 <0>         0.1242
     20 H3         -0.5280    1.8163    0.9069 H         1 <0>         0.1236
     21 H4          0.1827   -0.0663   -2.0888 H         1 <0>         0.1322
     22 H5          1.7201   -0.1456   -1.1964 H         1 <0>         0.1283
     23 H6         -0.4044   -2.3361   -1.2786 H         1 <0>         0.0902
     24 H7          1.1404   -2.3531   -2.1643 H         1 <0>         0.1159
     25 H8          2.3869   -2.2866   -0.0407 H         1 <0>         0.0945
     26 H9         -0.3718   -2.3496    1.2677 H         1 <0>         0.0893
     27 H10         1.1951   -2.3758    2.1133 H         1 <0>         0.1127
     28 H11         1.7502   -0.1581    1.1545 H         1 <0>         0.1272
     29 H12         0.2361   -0.0886    2.0867 H         1 <0>         0.1304
     30 H13         0.1767   -4.3886    0.0695 H         1 <0>         0.0832
     31 H14         1.6140   -4.4904   -0.9755 H         1 <0>         0.0953
     32 H15         0.9265   -5.8569    2.4250 H         1 <0>         0.0647
     33 H16         2.1002   -4.7474    3.1731 H         1 <0>         0.0767
     34 H17         0.5689   -4.1159    2.5214 H         1 <0>         0.0733
     35 H18         4.0995   -4.8257    2.8788 H         1 <0>         0.1194
     36 H19         3.6284   -6.4715    2.3912 H         1 <0>         0.1218
     37 H20         7.3439   -5.5797   -0.9603 H         1 <0>         0.4019
     38 H21         6.1534   -6.5313    3.4017 H         1 <0>         0.3955
     39 H22         7.3253   -6.5102    2.1981 H         1 <0>         0.4110
     40 H23        -0.9449   -0.3523    0.0117 H         1 <0>         0.4240
@<TRIPOS>BOND
     1    1    2 1
     2    1   18 1
     3    1   19 1
     4    1   20 1
     5    2    7 1
     6    2    3 1
     7    2   40 1
     8    3    4 1
     9    3   21 1
    10    3   22 1
    11    4    5 1
    12    4   23 1
    13    4   24 1
    14    5    6 1
    15    5    8 1
    16    5   25 1
    17    6    7 1
    18    6   26 1
    19    6   27 1
    20    7   28 1
    21    7   29 1
    22    8    9 1
    23    8   30 1
    24    8   31 1
    25    9   10 1
    26    9   11 am
    27   10   32 1
    28   10   33 1
    29   10   34 1
    30   11   12 2
    31   11   13 1
    32   13   14 1
    33   13   35 1
    34   13   36 1
    35   14   15 2
    36   14   17 1
    37   15   16 1
    38   16   37 1
    39   17   38 1
    40   17   39 1
@<TRIPOS>MOLECULE
ZINC07844718
   49    51     0     0     0
SMALL
USER_CHARGES
methyl 9-[2-(3-oxopiperazin-1-yl)acetyl]amino-8-thiabicyclo[5.3.0]deca-9,11-diene-10-carboxylate
@<TRIPOS>ATOM
      1 C1          0.9348   -1.7246    8.3103 C.3       1 <0>         0.0298
      2 O1          0.0103   -0.6647    7.9494 O.3       1 <0>        -0.3508
      3 C2          0.5405    0.5480    7.6890 C.2       1 <0>         0.5196
      4 O2          1.7433    0.7142    7.7618 O.2       1 <0>        -0.4842
      5 C3         -0.3319    1.6643    7.3187 C.2       1 <0>        -0.1655
      6 C4         -0.8923    2.5507    8.3302 C.2       1 <0>        -0.0649
      7 C5         -1.6901    3.5287    7.8510 C.2       1 <0>        -0.1723
      8 S1         -1.6903    3.2977    6.0940 S.3       1 <0>         0.2459
      9 C6         -0.6498    1.9170    5.9925 C.2       1 <0>         0.0327
     10 N1         -0.2395    1.2284    4.8617 N.am      1 <0>        -0.5920
     11 C7         -0.6607    1.6218    3.6433 C.2       1 <0>         0.4960
     12 O3         -1.3987    2.5783    3.5364 O.2       1 <0>        -0.4933
     13 C8         -0.2146    0.8731    2.4139 C.3       1 <0>        -0.0198
     14 C9         -2.3615    1.1080    1.3140 C.3       1 <0>        -0.0252
     15 C10        -3.0882    1.9264    0.2451 C.3       1 <0>         0.0853
     16 N2         -2.4376    1.7481   -1.0498 N.am      1 <0>        -0.7211
     17 C11        -1.1928    1.2774   -1.1792 C.2       1 <0>         0.5046
     18 O4         -0.7173    1.1899   -2.2914 O.2       1 <0>        -0.4866
     19 C12        -0.3585    0.8519   -0.0042 C.3       1 <0>        -0.0109
     20 C13        -2.4278    4.5720    8.6306 C.3       1 <0>        -0.0451
     21 C14        -1.4682    5.2298    9.6314 C.3       1 <0>        -0.1159
     22 C15        -1.5113    4.4361   10.9334 C.3       1 <0>        -0.1255
     23 C16        -1.7495    2.9564   10.6395 C.3       1 <0>        -0.1246
     24 C17        -0.5999    2.3856    9.8164 C.3       1 <0>        -0.0627
     25 H1          1.4771   -1.4421    9.2126 H         1 <0>         0.0699
     26 H2          0.3794   -2.6445    8.4931 H         1 <0>         0.1090
     27 H3          1.6419   -1.8828    7.4960 H         1 <0>         0.0648
     28 H4          0.3507    0.4634    4.9472 H         1 <0>         0.4272
     29 H5         -0.4423   -0.1864    2.5311 H         1 <0>         0.1721
     30 H6          0.8595    1.0013    2.2802 H         1 <0>         0.1748
     31 H7         -2.7374    1.3795    2.3005 H         1 <0>         0.1577
     32 H8         -2.5301    0.0456    1.1383 H         1 <0>         0.1443
     33 H9         -4.1243    1.5947    0.1779 H         1 <0>         0.1308
     34 H10        -3.0650    2.9811    0.5193 H         1 <0>         0.1047
     35 H11        -2.9303    1.9819   -1.8520 H         1 <0>         0.4283
     36 H12        -0.3457   -0.2364    0.0553 H         1 <0>         0.1692
     37 H13         0.6598    1.2192   -0.1315 H         1 <0>         0.1701
     38 H14        -2.8171    5.3282    7.9489 H         1 <0>         0.0800
     39 H15        -3.2535    4.1076    9.1696 H         1 <0>         0.0985
     40 H16        -0.4552    5.2202    9.2291 H         1 <0>         0.0680
     41 H17        -1.7799    6.2575    9.8175 H         1 <0>         0.0771
     42 H18        -0.5634    4.5521   11.4589 H         1 <0>         0.0677
     43 H19        -2.3185    4.8144   11.5607 H         1 <0>         0.0699
     44 H20        -1.8259    2.4099   11.5795 H         1 <0>         0.0725
     45 H21        -2.6807    2.8445   10.0842 H         1 <0>         0.0745
     46 H22         0.3204    2.9141   10.0649 H         1 <0>         0.0850
     47 H23        -0.4821    1.3264   10.0451 H         1 <0>         0.0716
     48 N3         -0.9211    1.4228    1.2340 N.4       1 <0>        -0.3851
     49 H24        -0.8010    2.4424    1.2180 H         1 <0>         0.4438
@<TRIPOS>BOND
     1    1    2 1
     2    1   25 1
     3    1   26 1
     4    1   27 1
     5    2    3 1
     6    3    4 2
     7    3    5 1
     8    5    9 2
     9    5    6 1
    10    6   24 1
    11    6    7 2
    12    7    8 1
    13    7   20 1
    14    8    9 1
    15    9   10 1
    16   10   11 am
    17   10   28 1
    18   11   12 2
    19   11   13 1
    20   13   29 1
    21   13   30 1
    22   13   48 1
    23   14   15 1
    24   14   31 1
    25   14   32 1
    26   14   48 1
    27   15   16 1
    28   15   33 1
    29   15   34 1
    30   16   17 am
    31   16   35 1
    32   17   18 2
    33   17   19 1
    34   19   36 1
    35   19   37 1
    36   19   48 1
    37   20   21 1
    38   20   38 1
    39   20   39 1
    40   21   22 1
    41   21   40 1
    42   21   41 1
    43   22   23 1
    44   22   42 1
    45   22   43 1
    46   23   24 1
    47   23   44 1
    48   23   45 1
    49   24   46 1
    50   24   47 1
    51   48   49 1
@<TRIPOS>MOLECULE
ZINC41667260
   56    58     0     0     0
SMALL
USER_CHARGES

@<TRIPOS>ATOM
      1 C1         -0.0016    1.5634    0.0147 C.3       1 <0>        -0.1870
      2 C2          0.0281    0.0338   -0.0011 C.3       1 <0>         0.0277
      3 H1         -0.9924   -0.3491    0.0018 H         1 <0>         0.1379
      4 C3          0.7496   -0.4487   -1.2614 C.3       1 <0>        -0.1404
      5 C4          0.7766   -1.9798   -1.2729 C.3       1 <0>        -0.1397
      6 C5          1.4507   -2.4784    0.0086 C.3       1 <0>        -0.1453
      7 C6          0.7032   -1.9207    1.2218 C.3       1 <0>        -0.0152
      8 N1          0.7363   -0.4536    1.1886 N.4       1 <0>        -0.3760
      9 C7          0.0863    0.0762    2.3948 C.3       1 <0>        -0.0306
     10 C8          0.8950   -0.3278    3.6292 C.3       1 <0>         0.0955
     11 N2          0.2468    0.2005    4.8320 N.am      1 <0>        -0.7036
     12 C9          0.7856   -0.0321    6.0453 C.2       1 <0>         0.5222
     13 O1          1.8078   -0.6793    6.1413 O.2       1 <0>        -0.4987
     14 C10         0.1249    0.5064    7.2714 C.2       1 <0>         0.5077
     15 O2         -0.8975    1.1537    7.1754 O.2       1 <0>        -0.4895
     16 N3          0.6637    0.2737    8.4847 N.am      1 <0>        -0.6290
     17 C11         0.1120    0.8729    9.6212 C.ar      1 <0>         0.1411
     18 C12        -0.6077    2.0539    9.5056 C.ar      1 <0>        -0.1212
     19 C13        -1.1517    2.6441   10.6302 C.ar      1 <0>        -0.0903
     20 C14        -0.9818    2.0615   11.8732 C.ar      1 <0>        -0.1165
     21 C15        -0.2667    0.8855   11.9982 C.ar      1 <0>        -0.0878
     22 C16         0.2784    0.2825   10.8742 C.ar      1 <0>         0.1216
     23 N4          0.9980   -0.9124   10.9975 N.am      1 <0>        -0.5864
     24 C17         2.4438   -0.9873   11.2383 C.3       1 <0>         0.0999
     25 C18         2.7060   -2.4287   11.7279 C.3       1 <0>        -0.1315
     26 C19         1.5184   -3.1955   11.1013 C.3       1 <0>        -0.1543
     27 C20         0.4524   -2.1382   10.9164 C.2       1 <0>         0.5182
     28 O3         -0.7232   -2.3637   10.7208 O.2       1 <0>        -0.5129
     29 H2          1.0188    1.9467    0.0118 H         1 <0>         0.0826
     30 H3         -0.5283    1.9257   -0.8681 H         1 <0>         0.1083
     31 H4         -0.5164    1.9075    0.9117 H         1 <0>         0.0827
     32 H5          0.2217   -0.0873   -2.1439 H         1 <0>         0.1135
     33 H6          1.7704   -0.0667   -1.2651 H         1 <0>         0.0891
     34 H7         -0.2431   -2.3620   -1.3208 H         1 <0>         0.0825
     35 H8          1.3386   -2.3280   -2.1395 H         1 <0>         0.0962
     36 H9          1.4240   -3.5678    0.0338 H         1 <0>         0.1142
     37 H10         2.4861   -2.1385    0.0312 H         1 <0>         0.0889
     38 H11        -0.3319   -2.2614    1.1984 H         1 <0>         0.1317
     39 H12         1.1805   -2.2739    2.1359 H         1 <0>         0.1327
     40 H13         0.0363    1.1632    2.3329 H         1 <0>         0.1450
     41 H14        -0.9222   -0.3301    2.4723 H         1 <0>         0.1406
     42 H15         0.9450   -1.4149    3.6910 H         1 <0>         0.0962
     43 H16         1.9035    0.0785    3.5517 H         1 <0>         0.0966
     44 H17        -0.5702    0.7177    4.7553 H         1 <0>         0.4221
     45 H18         1.4342   -0.3094    8.5695 H         1 <0>         0.4215
     46 H19        -0.7421    2.5118    8.5368 H         1 <0>         0.1492
     47 H20        -1.7112    3.5633   10.5385 H         1 <0>         0.1357
     48 H21        -1.4089    2.5273   12.7490 H         1 <0>         0.1355
     49 H22        -0.1361    0.4336   12.9704 H         1 <0>         0.1340
     50 H23         2.9903   -0.7974   10.3145 H         1 <0>         0.0731
     51 H24         2.7363   -0.2695   12.0047 H         1 <0>         0.0872
     52 H25         3.6564   -2.8032   11.3475 H         1 <0>         0.0972
     53 H26         2.6746   -2.4828   12.8162 H         1 <0>         0.0885
     54 H27         1.8055   -3.6251   10.1416 H         1 <0>         0.1076
     55 H28         1.1666   -3.9736   11.7787 H         1 <0>         0.1086
     56 H29         1.6949   -0.1399    1.1603 H         1 <0>         0.4230
@<TRIPOS>BOND
     1    1    2 1
     2    1   29 1
     3    1   30 1
     4    1   31 1
     5    2    3 1
     6    2    8 1
     7    2    4 1
     8    4    5 1
     9    4   32 1
    10    4   33 1
    11    5    6 1
    12    5   34 1
    13    5   35 1
    14    6    7 1
    15    6   36 1
    16    6   37 1
    17    7    8 1
    18    7   38 1
    19    7   39 1
    20    8    9 1
    21    8   56 1
    22    9   10 1
    23    9   40 1
    24    9   41 1
    25   10   11 1
    26   10   42 1
    27   10   43 1
    28   11   12 am
    29   11   44 1
    30   12   13 2
    31   12   14 1
    32   14   15 2
    33   14   16 am
    34   16   17 1
    35   16   45 1
    36   17   22 ar
    37   17   18 ar
    38   18   19 ar
    39   18   46 1
    40   19   20 ar
    41   19   47 1
    42   20   21 ar
    43   20   48 1
    44   21   22 ar
    45   21   49 1
    46   22   23 1
    47   23   27 am
    48   23   24 1
    49   24   25 1
    50   24   50 1
    51   24   51 1
    52   25   26 1
    53   25   52 1
    54   25   53 1
    55   26   27 1
    56   26   54 1
    57   26   55 1
    58   27   28 2
@<TRIPOS>MOLECULE
ZINC58223424
   48    51     0     0     0
SMALL
USER_CHARGES

@<TRIPOS>ATOM
      1 C1         -0.0187    1.5258    0.0104 C.3       1 <0>        -0.1731
      2 C2          0.0021   -0.0041    0.0020 C.3       1 <0>         0.2037
      3 H1          0.5293   -0.3651    0.8851 H         1 <0>         0.1443
      4 C3          0.7074   -0.4901   -1.2379 C.cat     1 <0>         0.3142
      5 N1          0.1179   -0.7476   -2.4260 N.pl3     1 <0>        -0.4990
      6 H2         -0.8254   -0.6531   -2.6312 H         1 <0>         0.4641
      7 C4          1.0949   -1.1649   -3.2859 C.2       1 <0>         0.0414
      8 C5          2.2611   -1.1488   -2.5890 C.2       1 <0>         0.1018
      9 N2          1.9857   -0.7245   -1.3388 N.pl3     1 <0>        -0.4637
     10 C6          3.5980   -1.5246   -3.1111 C.ar      1 <0>        -0.0681
     11 C7          4.7150   -1.4670   -2.2798 C.ar      1 <0>        -0.1002
     12 C8          5.9562   -1.8177   -2.7708 C.ar      1 <0>        -0.1071
     13 C9          6.0928   -2.2253   -4.0856 C.ar      1 <0>        -0.0831
     14 C10         4.9876   -2.2840   -4.9153 C.ar      1 <0>        -0.1077
     15 C11         3.7405   -1.9420   -4.4331 C.ar      1 <0>        -0.0808
     16 N3         -1.3723   -0.5112    0.0124 N.am      1 <0>        -0.7359
     17 C12        -2.0286   -0.6552    1.1807 C.2       1 <0>         0.5110
     18 O1         -1.4814   -0.3650    2.2235 O.2       1 <0>        -0.4945
     19 C13        -3.4424   -1.1768    1.1914 C.3       1 <0>         0.0803
     20 N4         -3.9291   -1.2403    2.5718 N.am      1 <0>        -0.5385
     21 C14        -3.7400   -2.3710    3.3008 C.2       1 <0>         0.3707
     22 N5         -4.1417   -2.5048    4.5282 N.2       1 <0>        -0.5049
     23 C15        -4.7892   -1.5052    5.1776 C.ar      1 <0>         0.1428
     24 C16        -5.2211   -1.6483    6.4978 C.ar      1 <0>        -0.1040
     25 C17        -5.8743   -0.6072    7.1180 C.ar      1 <0>        -0.0698
     26 C18        -6.1099    0.5858    6.4470 C.ar      1 <0>        -0.1291
     27 C19        -5.6934    0.7509    5.1442 C.ar      1 <0>        -0.0433
     28 C20        -5.0305   -0.2906    4.4982 C.ar      1 <0>        -0.1914
     29 C21        -4.5581   -0.1700    3.1109 C.2       1 <0>         0.5571
     30 O2         -4.7300    0.8510    2.4709 O.2       1 <0>        -0.5081
     31 H3          1.0039    1.9031    0.0027 H         1 <0>         0.0847
     32 H4         -0.5459    1.8868   -0.8726 H         1 <0>         0.0766
     33 H5         -0.5289    1.8773    0.9072 H         1 <0>         0.1013
     34 H6          0.9650   -1.4523   -4.3189 H         1 <0>         0.2338
     35 H7          4.6096   -1.1482   -1.2533 H         1 <0>         0.1217
     36 H8          6.8226   -1.7734   -2.1275 H         1 <0>         0.1391
     37 H9          7.0661   -2.4985   -4.4658 H         1 <0>         0.1389
     38 H10         5.1001   -2.6026   -5.9411 H         1 <0>         0.1414
     39 H11         2.8775   -1.9931   -5.0803 H         1 <0>         0.1348
     40 H12        -1.8100   -0.7432   -0.8215 H         1 <0>         0.4027
     41 H13        -4.0803   -0.5097    0.6116 H         1 <0>         0.1374
     42 H14        -3.4651   -2.1740    0.7520 H         1 <0>         0.1344
     43 H15        -3.2296   -3.2012    2.8354 H         1 <0>         0.1990
     44 H16        -5.0439   -2.5714    7.0297 H         1 <0>         0.1434
     45 H17        -6.2080   -0.7196    8.1390 H         1 <0>         0.1396
     46 H18        -6.6243    1.3908    6.9507 H         1 <0>         0.1383
     47 H19        -5.8791    1.6809    4.6275 H         1 <0>         0.1395
     48 H20         2.6354   -0.6138   -0.6270 H         1 <0>         0.4644
@<TRIPOS>BOND
     1    1    2 1
     2    1   31 1
     3    1   32 1
     4    1   33 1
     5    2    3 1
     6    2    4 1
     7    2   16 1
     8    4    9 2
     9    4    5 1
    10    5    6 1
    11    5    7 1
    12    7    8 2
    13    7   34 1
    14    8    9 1
    15    8   10 1
    16    9   48 1
    17   10   15 ar
    18   10   11 ar
    19   11   12 ar
    20   11   35 1
    21   12   13 ar
    22   12   36 1
    23   13   14 ar
    24   13   37 1
    25   14   15 ar
    26   14   38 1
    27   15   39 1
    28   16   17 am
    29   16   40 1
    30   17   18 2
    31   17   19 1
    32   19   20 1
    33   19   41 1
    34   19   42 1
    35   20   29 am
    36   20   21 1
    37   21   22 2
    38   21   43 1
    39   22   23 1
    40   23   28 ar
    41   23   24 ar
    42   24   25 ar
    43   24   44 1
    44   25   26 ar
    45   25   45 1
    46   26   27 ar
    47   26   46 1
    48   27   28 ar
    49   27   47 1
    50   28   29 1
    51   29   30 2
@<TRIPOS>MOLECULE
ZINC63836468
   59    61     0     0     0
SMALL
USER_CHARGES

@<TRIPOS>ATOM
      1 C1         -0.0187    1.5258    0.0104 C.3       1 <0>        -0.1499
      2 C2          0.0021   -0.0041    0.0020 C.3       1 <0>        -0.0972
      3 C3          0.7161   -0.4971   -1.2581 C.3       1 <0>        -0.1127
      4 C4          0.7270   -2.0279   -1.2710 C.3       1 <0>        -0.1136
      5 C5          1.4420   -2.5429   -0.0266 C.3       1 <0>         0.1292
      6 C6          0.7531   -2.0414    1.2379 C.3       1 <0>        -0.1149
      7 C7          0.7421   -0.5105    1.2417 C.3       1 <0>        -0.1131
      8 C8          1.4950   -4.0532   -0.0352 C.2       1 <0>         0.5389
      9 O1          0.5565   -4.8206   -0.0300 O.2       1 <0>        -0.4587
     10 N1          2.8070   -4.3675   -0.0505 N.am      1 <0>        -0.5655
     11 C9          3.5764   -3.2720   -0.0526 C.2       1 <0>         0.7087
     12 O2          4.7914   -3.2995   -0.0650 O.2       1 <0>        -0.5401
     13 N2          2.8530   -2.1362   -0.0391 N.am      1 <0>        -0.7101
     14 C10         3.3253   -5.7377   -0.0624 C.3       1 <0>         0.1001
     15 C11         3.4881   -6.2008   -1.4872 C.2       1 <0>         0.5060
     16 O3          3.1996   -5.4593   -2.4026 O.2       1 <0>        -0.5146
     17 N3          3.9543   -7.4390   -1.7443 N.am      1 <0>        -0.7320
     18 C12         4.1125   -7.8892   -3.1294 C.3       1 <0>         0.1281
     19 C13         4.6539   -9.3202   -3.1418 C.3       1 <0>        -0.1185
     20 C14         3.5664  -10.3221   -2.6723 C.3       1 <0>        -0.1423
     21 C15         4.0196  -11.6270   -3.3732 C.3       1 <0>        -0.0086
     22 N4          4.5338  -11.1900   -4.6887 N.4       1 <0>        -0.3884
     23 C16         4.9494   -9.7792   -4.5852 C.3       1 <0>        -0.0088
     24 C17         5.6859  -12.0182   -5.0692 C.3       1 <0>         0.0244
     25 C18         5.2467  -13.4789   -5.1886 C.3       1 <0>        -0.1832
     26 C19         6.2361  -11.5394   -6.4141 C.3       1 <0>        -0.1856
     27 H1          1.0039    1.9031    0.0027 H         1 <0>         0.0556
     28 H2         -0.5459    1.8868   -0.8726 H         1 <0>         0.0578
     29 H3         -0.5289    1.8773    0.9072 H         1 <0>         0.0583
     30 H4         -1.0206   -0.3811    0.0105 H         1 <0>         0.0771
     31 H5          0.1917   -0.1299   -2.1403 H         1 <0>         0.0769
     32 H6          1.7411   -0.1262   -1.2638 H         1 <0>         0.0655
     33 H7         -0.2981   -2.3984   -1.2803 H         1 <0>         0.0902
     34 H8          1.2483   -2.3799   -2.1612 H         1 <0>         0.0767
     35 H9         -0.2716   -2.4120    1.2646 H         1 <0>         0.0919
     36 H10         1.2928   -2.4028    2.1132 H         1 <0>         0.0760
     37 H11         1.7670   -0.1396    1.2300 H         1 <0>         0.0659
     38 H12         0.2362   -0.1528    2.1384 H         1 <0>         0.0779
     39 H13         3.1961   -1.2289   -0.0381 H         1 <0>         0.4425
     40 H14         4.2916   -5.7650    0.4411 H         1 <0>         0.1317
     41 H15         2.6269   -6.3949    0.4557 H         1 <0>         0.1286
     42 H16         4.1851   -8.0320   -1.0122 H         1 <0>         0.4054
     43 H17         3.1462   -7.8618   -3.6330 H         1 <0>         0.0799
     44 H18         4.8110   -7.2320   -3.6475 H         1 <0>         0.0828
     45 H19         5.5471   -9.3983   -2.5220 H         1 <0>         0.1163
     46 H20         3.5819  -10.4355   -1.5883 H         1 <0>         0.1190
     47 H21         2.5787  -10.0163   -3.0172 H         1 <0>         0.1035
     48 H22         4.8093  -12.1116   -2.7991 H         1 <0>         0.1337
     49 H23         3.1737  -12.3023   -3.5017 H         1 <0>         0.1366
     50 H24         4.3817   -9.1726   -5.2908 H         1 <0>         0.1362
     51 H25         6.0161   -9.6908   -4.7913 H         1 <0>         0.1391
     52 H26         6.4616  -11.9331   -4.3082 H         1 <0>         0.1359
     53 H27         4.4709  -13.5640   -5.9496 H         1 <0>         0.0809
     54 H28         6.1015  -14.0934   -5.4709 H         1 <0>         0.1053
     55 H29         4.8546  -13.8200   -4.2304 H         1 <0>         0.0807
     56 H30         5.4604  -11.6245   -7.1751 H         1 <0>         0.0817
     57 H31         6.5490  -10.4988   -6.3290 H         1 <0>         0.0815
     58 H32         7.0910  -12.1540   -6.6964 H         1 <0>         0.1058
     59 H33         3.8080  -11.2800   -5.3839 H         1 <0>         0.4255
@<TRIPOS>BOND
     1    1    2 1
     2    1   27 1
     3    1   28 1
     4    1   29 1
     5    2    7 1
     6    2    3 1
     7    2   30 1
     8    3    4 1
     9    3   31 1
    10    3   32 1
    11    4    5 1
    12    4   33 1
    13    4   34 1
    14    5   13 1
    15    5    6 1
    16    5    8 1
    17    6    7 1
    18    6   35 1
    19    6   36 1
    20    7   37 1
    21    7   38 1
    22    8    9 2
    23    8   10 am
    24   10   11 am
    25   10   14 1
    26   11   12 2
    27   11   13 am
    28   13   39 1
    29   14   15 1
    30   14   40 1
    31   14   41 1
    32   15   16 2
    33   15   17 am
    34   17   18 1
    35   17   42 1
    36   18   19 1
    37   18   43 1
    38   18   44 1
    39   19   23 1
    40   19   20 1
    41   19   45 1
    42   20   21 1
    43   20   46 1
    44   20   47 1
    45   21   22 1
    46   21   48 1
    47   21   49 1
    48   22   23 1
    49   22   24 1
    50   22   59 1
    51   23   50 1
    52   23   51 1
    53   24   25 1
    54   24   26 1
    55   24   52 1
    56   25   53 1
    57   25   54 1
    58   25   55 1
    59   26   56 1
    60   26   57 1
    61   26   58 1
@<TRIPOS>MOLECULE
ZINC66363663
   59    61     0     0     0
SMALL
USER_CHARGES

@<TRIPOS>ATOM
      1 C1         -0.2848    1.2530    0.5018 C.3       1 <0>         0.0521
      2 O1         -0.2320   -0.1718    0.4056 O.3       1 <0>        -0.3655
      3 C2          0.4148   -0.6892   -0.6559 C.2       1 <0>         0.6485
      4 O2          0.9206    0.0488   -1.4781 O.2       1 <0>        -0.5641
      5 N1          0.5012   -2.0257   -0.8066 N.am      1 <0>        -0.5985
      6 C3         -0.1105   -2.9309    0.1759 C.3       1 <0>         0.1155
      7 C4          0.9535   -3.9178    0.6665 C.3       1 <0>        -0.1427
      8 C5          1.5796   -4.6266   -0.5367 C.3       1 <0>         0.1613
      9 C6          2.2578   -3.5958   -1.4421 C.3       1 <0>        -0.1447
     10 C7          1.2037   -2.6052   -1.9596 C.3       1 <0>         0.1289
     11 N2          2.5744   -5.5952   -0.0693 N.am      1 <0>        -0.7341
     12 C8          2.8880   -6.6608   -0.8325 C.2       1 <0>         0.7080
     13 O3          2.3452   -6.8183   -1.9091 O.2       1 <0>        -0.5660
     14 N3          3.8032   -7.5518   -0.4025 N.am      1 <0>        -0.7649
     15 C9          4.1440   -8.7102   -1.2322 C.3       1 <0>         0.1278
     16 C10         5.2861   -9.4888   -0.5764 C.3       1 <0>         0.0400
     17 C11         6.5409   -8.5977   -0.4709 C.3       1 <0>        -0.1376
     18 C12         7.7186   -9.5662   -0.7434 C.3       1 <0>        -0.1407
     19 C13         7.1516  -10.4913   -1.8487 C.3       1 <0>        -0.1261
     20 C14         5.6744  -10.6928   -1.4525 C.3       1 <0>        -0.1347
     21 N4          4.8801   -9.9481    0.7586 N.4       1 <0>        -0.3800
     22 C15         6.0386  -10.5312    1.4383 C.3       1 <0>        -0.0303
     23 C16         5.7463  -10.6728    2.9368 C.3       1 <0>        -0.1271
     24 S1          4.3400  -11.8106    3.1387 S.3       1 <0>        -0.1864
     25 C17         3.1123  -11.1366    1.9762 C.3       1 <0>        -0.1245
     26 C18         3.7986  -10.9256    0.6214 C.3       1 <0>        -0.0222
     27 H1          0.7285    1.6514    0.5535 H         1 <0>         0.0620
     28 H2         -0.7901    1.6579   -0.3750 H         1 <0>         0.0635
     29 H3         -0.8329    1.5364    1.4003 H         1 <0>         0.1065
     30 H4         -0.4893   -2.3530    1.0189 H         1 <0>         0.1024
     31 H5         -0.9288   -3.4784   -0.2917 H         1 <0>         0.0781
     32 H6          1.7264   -3.3775    1.2131 H         1 <0>         0.0762
     33 H7          0.4910   -4.6550    1.3228 H         1 <0>         0.0863
     34 H8          0.8023   -5.1464   -1.0968 H         1 <0>         0.0974
     35 H9          3.0184   -3.0585   -0.8756 H         1 <0>         0.0716
     36 H10         2.7235   -4.1038   -2.2866 H         1 <0>         0.0855
     37 H11         0.4903   -3.1268   -2.5977 H         1 <0>         0.0794
     38 H12         1.6923   -1.8124   -2.5260 H         1 <0>         0.1036
     39 H13         3.0075   -5.4695    0.7896 H         1 <0>         0.3969
     40 H14         4.2362   -7.4262    0.4563 H         1 <0>         0.3875
     41 H15         3.2719   -9.3569   -1.3290 H         1 <0>         0.0924
     42 H16         4.4559   -8.3705   -2.2198 H         1 <0>         0.1191
     43 H17         6.5134   -7.8094   -1.2231 H         1 <0>         0.1178
     44 H18         6.6222   -8.1700    0.5284 H         1 <0>         0.0873
     45 H19         8.5908   -9.0217   -1.1052 H         1 <0>         0.0963
     46 H20         7.9631  -10.1385    0.1515 H         1 <0>         0.0804
     47 H21         7.2227  -10.0088   -2.8235 H         1 <0>         0.0884
     48 H22         7.6785  -11.4455   -1.8550 H         1 <0>         0.0903
     49 H23         5.5624  -11.6178   -0.8868 H         1 <0>         0.0914
     50 H24         5.0491  -10.7223   -2.3448 H         1 <0>         0.1100
     51 H25         6.2496  -11.5137    1.0161 H         1 <0>         0.1463
     52 H26         6.9045   -9.8843    1.2978 H         1 <0>         0.1560
     53 H27         6.6217  -11.0766    3.4455 H         1 <0>         0.1556
     54 H28         5.4940   -9.6986    3.3557 H         1 <0>         0.1089
     55 H29         2.2870  -11.8398    1.8646 H         1 <0>         0.1558
     56 H30         2.7363  -10.1842    2.3500 H         1 <0>         0.1088
     57 H31         3.0690  -10.5596   -0.1010 H         1 <0>         0.1462
     58 H32         4.2089  -11.8730    0.2718 H         1 <0>         0.1477
     59 H33         4.5471   -9.1592    1.2924 H         1 <0>         0.4122
@<TRIPOS>BOND
     1    1    2 1
     2    1   27 1
     3    1   28 1
     4    1   29 1
     5    2    3 1
     6    3    4 2
     7    3    5 am
     8    5   10 1
     9    5    6 1
    10    6    7 1
    11    6   30 1
    12    6   31 1
    13    7    8 1
    14    7   32 1
    15    7   33 1
    16    8    9 1
    17    8   11 1
    18    8   34 1
    19    9   10 1
    20    9   35 1
    21    9   36 1
    22   10   37 1
    23   10   38 1
    24   11   12 am
    25   11   39 1
    26   12   13 2
    27   12   14 am
    28   14   15 1
    29   14   40 1
    30   15   16 1
    31   15   41 1
    32   15   42 1
    33   16   20 1
    34   16   17 1
    35   16   21 1
    36   17   18 1
    37   17   43 1
    38   17   44 1
    39   18   19 1
    40   18   45 1
    41   18   46 1
    42   19   20 1
    43   19   47 1
    44   19   48 1
    45   20   49 1
    46   20   50 1
    47   21   26 1
    48   21   22 1
    49   21   59 1
    50   22   23 1
    51   22   51 1
    52   22   52 1
    53   23   24 1
    54   23   53 1
    55   23   54 1
    56   24   25 1
    57   25   26 1
    58   25   55 1
    59   25   56 1
    60   26   57 1
    61   26   58 1
@<TRIPOS>MOLECULE
ZINC09441909
   60    61     0     0     0
SMALL
USER_CHARGES
4-methyl-2-(p-tolylsulfonylamino)-N-[1-(4-sulfamoylphenyl)ethyl]pentanamide
@<TRIPOS>ATOM
      1 C1         -3.9859   -0.9710   -4.3248 C.3       1 <0>        -0.1272
      2 C2         -3.7697   -1.0088   -2.8339 C.ar      1 <0>        -0.0245
      3 C3         -3.0082   -2.0160   -2.2713 C.ar      1 <0>        -0.1393
      4 C4         -2.8098   -2.0507   -0.9037 C.ar      1 <0>        -0.0105
      5 C5         -3.3723   -1.0777   -0.0988 C.ar      1 <0>        -0.6849
      6 C6         -4.1378   -0.0732   -0.6609 C.ar      1 <0>        -0.0209
      7 C7         -4.3326   -0.0361   -2.0290 C.ar      1 <0>        -0.1397
      8 S1         -3.1195   -1.1219    1.6444 S.o2      1 <0>         2.6890
      9 O1         -2.7074   -2.4443    1.9616 O.2       1 <0>        -0.9526
     10 O2         -4.2613   -0.5172    2.2359 O.2       1 <0>        -0.9432
     11 N1         -1.8339   -0.1327    1.9779 N.pl3     1 <0>        -1.0912
     12 C8         -1.9093    1.2967    1.6660 C.3       1 <0>         0.1414
     13 H1         -2.6207    1.4547    0.8554 H         1 <0>         0.1094
     14 C9         -0.5289    1.7988    1.2380 C.3       1 <0>        -0.1173
     15 C10        -0.1438    1.1569   -0.0963 C.3       1 <0>        -0.0933
     16 C11         0.0447   -0.3490    0.0977 C.3       1 <0>        -0.1550
     17 C12         1.1624    1.7735   -0.6008 C.3       1 <0>        -0.1483
     18 C13        -2.3629    2.0542    2.8873 C.2       1 <0>         0.5006
     19 O3         -2.5999    1.4586    3.9169 O.2       1 <0>        -0.5072
     20 N2         -2.5053    3.3934    2.8354 N.am      1 <0>        -0.7272
     21 C14        -2.9462    4.1297    4.0226 C.3       1 <0>         0.1748
     22 H2         -3.6605    3.5246    4.5810 H         1 <0>         0.1062
     23 C15        -1.7380    4.4395    4.9086 C.3       1 <0>        -0.1588
     24 C16        -3.6024    5.4186    3.5994 C.ar      1 <0>        -0.0323
     25 C17        -3.0676    6.1581    2.5611 C.ar      1 <0>        -0.1378
     26 C18        -3.6723    7.3379    2.1697 C.ar      1 <0>        -0.0107
     27 C19        -4.8058    7.7836    2.8234 C.ar      1 <0>        -0.6772
     28 C20        -5.3377    7.0468    3.8651 C.ar      1 <0>        -0.0145
     29 C21        -4.7360    5.8643    4.2531 C.ar      1 <0>        -0.1267
     30 S2         -5.5724    9.2912    2.3293 S.o2      1 <0>         2.7012
     31 O4         -5.1981    9.5128    0.9765 O.2       1 <0>        -0.9616
     32 O5         -6.9302    9.2102    2.7405 O.2       1 <0>        -0.9584
     33 N3         -4.8807   10.5061    3.2169 N.pl3     1 <0>        -1.2477
     34 H3         -4.8813   -1.5393   -4.5767 H         1 <0>         0.0808
     35 H4         -4.1089    0.0627   -4.6480 H         1 <0>         0.0737
     36 H5         -3.1240   -1.4090   -4.8282 H         1 <0>         0.0738
     37 H6         -2.5684   -2.7759   -2.9001 H         1 <0>         0.1338
     38 H7         -2.2152   -2.8377   -0.4641 H         1 <0>         0.1417
     39 H8         -4.5809    0.6844   -0.0316 H         1 <0>         0.1361
     40 H9         -4.9273    0.7510   -2.4686 H         1 <0>         0.1335
     41 H10        -1.0310   -0.4997    2.3798 H         1 <0>         0.4260
     42 H11         0.2067    1.5300    1.9962 H         1 <0>         0.0837
     43 H12        -0.5552    2.8827    1.1256 H         1 <0>         0.0829
     44 H13        -0.9343    1.3331   -0.8258 H         1 <0>         0.0737
     45 H14         0.7200   -0.5258    0.9348 H         1 <0>         0.0593
     46 H15        -0.9200   -0.8121    0.3050 H         1 <0>         0.0518
     47 H16         0.4683   -0.7819   -0.8085 H         1 <0>         0.0568
     48 H17         1.4367    1.3162   -1.5514 H         1 <0>         0.0578
     49 H18         1.0282    2.8464   -0.7390 H         1 <0>         0.0557
     50 H19         1.9529    1.5973    0.1287 H         1 <0>         0.0568
     51 H20        -2.3157    3.8697    2.0119 H         1 <0>         0.4000
     52 H21        -1.0237    5.0446    4.3503 H         1 <0>         0.0617
     53 H22        -2.0661    4.9874    5.7920 H         1 <0>         0.0707
     54 H23        -1.2633    3.5072    5.2148 H         1 <0>         0.0709
     55 H24        -2.1794    5.8121    2.0533 H         1 <0>         0.1329
     56 H25        -3.2566    7.9138    1.3561 H         1 <0>         0.1454
     57 H26        -6.2231    7.3952    4.3761 H         1 <0>         0.1466
     58 H27        -5.1513    5.2889    5.0672 H         1 <0>         0.1391
     59 H28        -4.8114   11.3994    2.8451 H         1 <0>         0.4227
     60 H29        -4.5449   10.3245    4.1086 H         1 <0>         0.4175
@<TRIPOS>BOND
     1    1    2 1
     2    1   34 1
     3    1   35 1
     4    1   36 1
     5    2    7 ar
     6    2    3 ar
     7    3    4 ar
     8    3   37 1
     9    4    5 ar
    10    4   38 1
    11    5    6 ar
    12    5    8 1
    13    6    7 ar
    14    6   39 1
    15    7   40 1
    16    8    9 2
    17    8   10 2
    18    8   11 1
    19   11   12 1
    20   11   41 1
    21   12   13 1
    22   12   14 1
    23   12   18 1
    24   14   15 1
    25   14   42 1
    26   14   43 1
    27   15   16 1
    28   15   17 1
    29   15   44 1
    30   16   45 1
    31   16   46 1
    32   16   47 1
    33   17   48 1
    34   17   49 1
    35   17   50 1
    36   18   19 2
    37   18   20 am
    38   20   21 1
    39   20   51 1
    40   21   22 1
    41   21   23 1
    42   21   24 1
    43   23   52 1
    44   23   53 1
    45   23   54 1
    46   24   29 ar
    47   24   25 ar
    48   25   26 ar
    49   25   55 1
    50   26   27 ar
    51   26   56 1
    52   27   28 ar
    53   27   30 1
    54   28   29 ar
    55   28   57 1
    56   29   58 1
    57   30   31 2
    58   30   32 2
    59   30   33 1
    60   33   59 1
    61   33   60 1
@<TRIPOS>MOLECULE
ZINC13977389
   57    59     0     0     0
SMALL
USER_CHARGES
N-[4-[[[(E)-3-(3,4-dimethoxyphenyl)prop-2-enoyl]carbamothioylamino]carbamoyl]phenyl]cyclopropanecarboxamide
@<TRIPOS>ATOM
      1 C1          4.4040   12.3606   -0.0676 C.3       1 <0>         0.0236
      2 O1          5.6896   11.7372   -0.0911 O.3       1 <0>        -0.3019
      3 C2          5.7165   10.3793   -0.0948 C.ar      1 <0>         0.1205
      4 C3          4.5268    9.6633   -0.0763 C.ar      1 <0>        -0.1792
      5 C4          4.5476    8.2860   -0.0801 C.ar      1 <0>        -0.0883
      6 C5          5.7703    7.6051   -0.1025 C.ar      1 <0>        -0.0856
      7 C6          6.9690    8.3278   -0.1153 C.ar      1 <0>        -0.1429
      8 C7          6.9387    9.7083   -0.1168 C.ar      1 <0>         0.0976
      9 O2          8.1013   10.4137   -0.1349 O.3       1 <0>        -0.3048
     10 C8          9.3162    9.6617   -0.1569 C.3       1 <0>         0.0232
     11 C9          5.7955    6.1356   -0.1066 C.2       1 <0>         0.0149
     12 C10         4.6378    5.4403   -0.0887 C.2       1 <0>        -0.2326
     13 C11         4.6629    3.9792   -0.0927 C.2       1 <0>         0.5271
     14 O3          5.7270    3.3889   -0.1123 O.2       1 <0>        -0.4109
     15 N1          3.5076    3.2853   -0.0748 N.am      1 <0>        -0.6433
     16 C12         3.5307    1.9377   -0.0785 C.2       1 <0>         0.5170
     17 S1          5.0276    1.1074   -0.1060 S.2       1 <0>        -0.4603
     18 N2          2.3755    1.2439   -0.0606 N.pl3     1 <0>        -0.4561
     19 N3          1.1505    1.9234   -0.0381 N.am      1 <0>        -0.5505
     20 C13        -0.0048    1.2295   -0.0202 C.2       1 <0>         0.5725
     21 O4          0.0161    0.0138   -0.0235 O.2       1 <0>        -0.5142
     22 C14        -1.2954    1.9454   -0.0026 C.ar      1 <0>        -0.1523
     23 C15        -1.3211    3.3426    0.0072 C.ar      1 <0>        -0.0647
     24 C16        -2.5267    4.0072    0.0187 C.ar      1 <0>        -0.1284
     25 C17        -3.7185    3.2894    0.0314 C.ar      1 <0>         0.1829
     26 C18        -3.6964    1.8982    0.0271 C.ar      1 <0>        -0.1501
     27 C19        -2.4943    1.2274    0.0102 C.ar      1 <0>        -0.0269
     28 N4         -4.9378    3.9657    0.0480 N.am      1 <0>        -0.6712
     29 C20        -5.0561    5.1252    0.7247 C.2       1 <0>         0.5467
     30 O5         -4.0827    5.6231    1.2495 O.2       1 <0>        -0.5140
     31 C21        -6.3980    5.8031    0.8294 C.3       1 <0>        -0.2014
     32 C22        -6.5804    7.1274    0.0852 C.3       1 <0>        -0.1490
     33 C23        -6.4668    7.1166    1.6109 C.3       1 <0>        -0.1431
     34 H1          4.5253   13.4438   -0.0671 H         1 <0>         0.1039
     35 H2          3.8378   12.0589   -0.9489 H         1 <0>         0.0575
     36 H3          3.8681   12.0545    0.8308 H         1 <0>         0.0577
     37 H4          3.5828   10.1876   -0.0586 H         1 <0>         0.1410
     38 H5          3.6208    7.7318   -0.0653 H         1 <0>         0.1331
     39 H6          7.9151    7.8070   -0.1282 H         1 <0>         0.1438
     40 H7          9.3696    9.0317    0.7310 H         1 <0>         0.0575
     41 H8          9.3397    9.0354   -1.0487 H         1 <0>         0.0575
     42 H9         10.1658   10.3443   -0.1698 H         1 <0>         0.1038
     43 H10         6.7398    5.6118   -0.1240 H         1 <0>         0.1413
     44 H11         3.6935    5.9641   -0.0713 H         1 <0>         0.1330
     45 H12         2.6595    3.7558   -0.0592 H         1 <0>         0.4022
     46 H13         2.3921    0.2740   -0.0633 H         1 <0>         0.4582
     47 H14         1.1338    2.8932   -0.0354 H         1 <0>         0.4181
     48 H15        -0.3964    3.9004    0.0015 H         1 <0>         0.1253
     49 H16        -2.5474    5.0870    0.0221 H         1 <0>         0.1493
     50 H17        -4.6233    1.3440    0.0373 H         1 <0>         0.1398
     51 H18        -2.4779    0.1475    0.0065 H         1 <0>         0.1464
     52 H19        -5.7009    3.6016   -0.4275 H         1 <0>         0.4177
     53 H20        -7.2581    5.1363    0.8890 H         1 <0>         0.1299
     54 H21        -5.7299    7.5083   -0.4801 H         1 <0>         0.1013
     55 H22        -7.5607    7.3320   -0.3451 H         1 <0>         0.1093
     56 H23        -7.3725    7.3141    2.1844 H         1 <0>         0.1079
     57 H24        -5.5417    7.4903    2.0497 H         1 <0>         0.1101
@<TRIPOS>BOND
     1    1    2 1
     2    1   34 1
     3    1   35 1
     4    1   36 1
     5    2    3 1
     6    3    8 ar
     7    3    4 ar
     8    4    5 ar
     9    4   37 1
    10    5    6 ar
    11    5   38 1
    12    6    7 ar
    13    6   11 1
    14    7    8 ar
    15    7   39 1
    16    8    9 1
    17    9   10 1
    18   10   40 1
    19   10   41 1
    20   10   42 1
    21   11   12 2
    22   11   43 1
    23   12   13 1
    24   12   44 1
    25   13   14 2
    26   13   15 am
    27   15   16 1
    28   15   45 1
    29   16   17 2
    30   16   18 1
    31   18   19 1
    32   18   46 1
    33   19   20 am
    34   19   47 1
    35   20   21 2
    36   20   22 1
    37   22   27 ar
    38   22   23 ar
    39   23   24 ar
    40   23   48 1
    41   24   25 ar
    42   24   49 1
    43   25   26 ar
    44   25   28 1
    45   26   27 ar
    46   26   50 1
    47   27   51 1
    48   28   29 am
    49   28   52 1
    50   29   30 2
    51   29   31 1
    52   31   33 1
    53   31   32 1
    54   31   53 1
    55   32   33 1
    56   32   54 1
    57   32   55 1
    58   33   56 1
    59   33   57 1
@<TRIPOS>MOLECULE
ZINC02794159
   55    58     0     0     0
SMALL
USER_CHARGES
3-(2-furylmethyl)-1-[[(5R,7S)-5-(4-methoxyphenyl)-7-(trifluoromethyl)4,5,6,7-tetrahydropyrazolo[1,5-a]pyrimidine-3-carbonyl]amino]thiourea
@<TRIPOS>ATOM
      1 C1         -3.6105    3.0091    0.0528 C.3       1 <0>         0.0216
      2 O1         -2.4216    3.8019    0.0452 O.3       1 <0>        -0.3144
      3 C2         -1.2366    3.1368    0.0307 C.ar      1 <0>         0.1402
      4 C3         -1.2185    1.7496    0.0173 C.ar      1 <0>        -0.2048
      5 C4         -0.0126    1.0758    0.0080 C.ar      1 <0>        -0.0586
      6 C5          1.1757    1.7828    0.0004 C.ar      1 <0>        -0.1417
      7 C6          1.1603    3.1653    0.0075 C.ar      1 <0>        -0.0659
      8 C7         -0.0430    3.8438    0.0227 C.ar      1 <0>        -0.1465
      9 C8          2.4897    1.0452   -0.0161 C.3       1 <0>         0.1818
     10 H1          2.3471    0.0248    0.3691 H         1 <0>         0.0904
     11 C9          3.0428    1.0198   -1.4448 C.3       1 <0>        -0.1513
     12 C10         4.2811    0.1123   -1.4807 C.3       1 <0>         0.1266
     13 H2          4.0103   -0.9502   -1.3931 H         1 <0>         0.1403
     14 N1          5.1295    0.4666   -0.3355 N.pl3     1 <0>        -0.4023
     15 C11         4.7121    1.2042    0.7170 C.2       1 <0>         0.4617
     16 C12         5.7885    1.3240    1.5862 C.2       1 <0>        -0.3600
     17 C13         6.8703    0.6217    1.0011 C.2       1 <0>         0.1145
     18 N2          6.4657    0.1209   -0.1335 N.2       1 <0>        -0.2787
     19 C14         5.8024    2.0415    2.8666 C.2       1 <0>         0.6209
     20 O2          4.7987    2.6075    3.2578 O.2       1 <0>        -0.5515
     21 N3          6.9268    2.0733    3.6091 N.am      1 <0>        -0.5571
     22 N4          6.9400    2.7581    4.8312 N.pl3     1 <0>        -0.4738
     23 C15         8.0644    2.7899    5.5737 C.2       1 <0>         0.5691
     24 S1          8.0806    3.6267    7.0672 S.2       1 <0>        -0.6108
     25 N5          9.1760    2.1630    5.1404 N.pl3     1 <0>        -0.6951
     26 C16        10.3982    2.1976    5.9474 C.3       1 <0>         0.2123
     27 C17        11.4861    1.4270    5.2449 C.2       1 <0>        -0.0510
     28 C18        12.3673    1.9351    4.3646 C.2       1 <0>        -0.1732
     29 C19        13.2008    0.8682    3.9572 C.2       1 <0>        -0.2189
     30 C20        12.7791   -0.2280    4.6129 C.2       1 <0>        -0.0208
     31 O3         11.7440    0.1176    5.3957 O.3       1 <0>        -0.1703
     32 N6          3.4454    1.7270    0.8699 N.pl3     1 <0>        -0.7028
     33 C21         5.0498    0.3369   -2.7844 C.3       1 <0>         0.4559
     34 F1          6.1968   -0.4640   -2.7932 F         1 <0>        -0.1593
     35 F2          4.2356   -0.0026   -3.8702 F         1 <0>        -0.1712
     36 F3          5.4198    1.6825   -2.8817 F         1 <0>        -0.1734
     37 H3         -4.4909    3.6685    0.0644 H         1 <0>         0.1053
     38 H4         -3.6193    2.3700    0.9480 H         1 <0>         0.0590
     39 H5         -3.6365    2.3785   -0.8482 H         1 <0>         0.0587
     40 H6         -2.1464    1.1970    0.0184 H         1 <0>         0.1334
     41 H7          0.0021   -0.0041    0.0020 H         1 <0>         0.1295
     42 H8          2.0897    3.7153    0.0009 H         1 <0>         0.1316
     43 H9         -0.0545    4.9237    0.0286 H         1 <0>         0.1359
     44 H10         2.2747    0.6291   -2.1284 H         1 <0>         0.1252
     45 H11         3.3197    2.0400   -1.7490 H         1 <0>         0.1045
     46 H12         7.8597    0.5186    1.4217 H         1 <0>         0.1895
     47 H13         7.8341    1.5616    3.2555 H         1 <0>         0.4343
     48 H14         6.0327    3.2698    5.1848 H         1 <0>         0.4898
     49 H15         9.1656    1.6254    4.1808 H         1 <0>         0.4082
     50 H16        10.7179    3.2412    6.0841 H         1 <0>         0.1203
     51 H17        10.2022    1.7425    6.9295 H         1 <0>         0.1063
     52 H18        12.4263    2.9610    4.0324 H         1 <0>         0.1528
     53 H19        14.0188    0.9228    3.2542 H         1 <0>         0.1528
     54 H20        13.2042   -1.2172    4.5281 H         1 <0>         0.2069
     55 H21         3.1015    2.5356    1.5317 H         1 <0>         0.4739
@<TRIPOS>BOND
     1    1    2 1
     2    1   37 1
     3    1   38 1
     4    1   39 1
     5    2    3 1
     6    3    8 ar
     7    3    4 ar
     8    4    5 ar
     9    4   40 1
    10    5    6 ar
    11    5   41 1
    12    6    7 ar
    13    6    9 1
    14    7    8 ar
    15    7   42 1
    16    8   43 1
    17    9   10 1
    18    9   32 1
    19    9   11 1
    20   11   12 1
    21   11   44 1
    22   11   45 1
    23   12   13 1
    24   12   14 1
    25   12   33 1
    26   14   18 1
    27   14   15 1
    28   15   16 2
    29   15   32 1
    30   16   17 1
    31   16   19 1
    32   17   18 2
    33   17   46 1
    34   19   20 2
    35   19   21 am
    36   21   22 1
    37   21   47 1
    38   22   23 1
    39   22   48 1
    40   23   24 2
    41   23   25 1
    42   25   26 1
    43   25   49 1
    44   26   27 1
    45   26   50 1
    46   26   51 1
    47   27   31 1
    48   27   28 2
    49   28   29 1
    50   28   52 1
    51   29   30 2
    52   29   53 1
    53   30   31 1
    54   30   54 1
    55   32   55 1
    56   33   34 1
    57   33   35 1
    58   33   36 1
@<TRIPOS>MOLECULE
ZINC25464917
   61    62     0     0     0
SMALL
USER_CHARGES
N-[(1R)-2-[N'-[3-[(2-methoxyphenyl)sulfamoyl]benzoyl]hydrazino]-1-methyl-2-oxo-ethyl]-2,2-dimethyl-propanamide
@<TRIPOS>ATOM
      1 C1          2.9987    7.9925    1.9166 C.3       1 <0>        -0.1629
      2 C2          3.7415    7.5295    0.6616 C.3       1 <0>         0.1402
      3 H1          3.2967    7.9664   -0.2447 H         1 <0>         0.1195
      4 C3          3.6972    6.0255    0.5779 C.2       1 <0>         0.5173
      5 O1          4.7289    5.3878    0.5737 O.2       1 <0>        -0.5422
      6 N1          2.5113    5.3891    0.5078 N.am      1 <0>        -0.5249
      7 N2          2.4702    3.9908    0.4299 N.am      1 <0>        -0.5292
      8 C4          1.2842    3.3544    0.3598 C.2       1 <0>         0.5646
      9 O2          0.2503    3.9935    0.3640 O.2       1 <0>        -0.5318
     10 C5          1.2408    1.8789    0.2776 C.ar      1 <0>        -0.1470
     11 C6          2.4264    1.1419    0.2725 C.ar      1 <0>        -0.0300
     12 C7          2.3789   -0.2346    0.1966 C.ar      1 <0>        -0.1399
     13 C8          1.1595   -0.8849    0.1247 C.ar      1 <0>         0.0124
     14 C9         -0.0190   -0.1605    0.1289 C.ar      1 <0>        -0.6820
     15 C10         0.0145    1.2168    0.2049 C.ar      1 <0>         0.0475
     16 S1         -1.5663   -0.9985    0.0363 S.o2      1 <0>         2.6948
     17 O3         -1.3449   -2.3149    0.5233 O.2       1 <0>        -0.9459
     18 O4         -2.5342   -0.1281    0.6062 O.2       1 <0>        -0.9436
     19 N3         -1.9483   -1.1453   -1.5683 N.pl3     1 <0>        -1.0577
     20 C11        -1.1002   -1.8533   -2.4276 C.ar      1 <0>         0.1297
     21 C12        -0.4279   -2.9775   -1.9708 C.ar      1 <0>        -0.1438
     22 C13         0.4053   -3.6778   -2.8228 C.ar      1 <0>        -0.1249
     23 C14         0.5787   -3.2549   -4.1276 C.ar      1 <0>        -0.0937
     24 C15        -0.0841   -2.1322   -4.5885 C.ar      1 <0>        -0.1868
     25 C16        -0.9245   -1.4277   -3.7425 C.ar      1 <0>         0.1106
     26 O5         -1.5763   -0.3227   -4.1942 O.3       1 <0>        -0.3142
     27 C17        -1.3482    0.0548   -5.5534 C.3       1 <0>         0.0235
     28 N4          5.1358    7.9741    0.7275 N.am      1 <0>        -0.7269
     29 C18         5.4688    9.2119    0.3110 C.2       1 <0>         0.5300
     30 O6          4.6141    9.9577   -0.1183 O.2       1 <0>        -0.5396
     31 C19         6.9031    9.6693    0.3787 C.3       1 <0>        -0.0820
     32 C20         7.0074   11.1011   -0.1505 C.3       1 <0>        -0.1311
     33 C21         7.3842    9.6259    1.8305 C.3       1 <0>        -0.1430
     34 C22         7.7739    8.7453   -0.4750 C.3       1 <0>        -0.1435
     35 H2          3.0310    9.0903    1.9777 H         1 <0>         0.0802
     36 H3          3.4794    7.5614    2.8072 H         1 <0>         0.0679
     37 H4          1.9518    7.6587    1.8671 H         1 <0>         0.0732
     38 H5          1.5756    5.9675    0.5117 H         1 <0>         0.4629
     39 H6          3.4059    3.4124    0.4260 H         1 <0>         0.4555
     40 H7          3.3787    1.6483    0.3279 H         1 <0>         0.1356
     41 H8          3.2953   -0.8060    0.1930 H         1 <0>         0.1457
     42 H9          1.1278   -1.9628    0.0647 H         1 <0>         0.1485
     43 H10        -0.9062    1.7814    0.2035 H         1 <0>         0.1565
     44 H11        -2.8686   -0.6864   -1.9588 H         1 <0>         0.4602
     45 H12        -0.5584   -3.3076   -0.9508 H         1 <0>         0.1665
     46 H13         0.9253   -4.5550   -2.4672 H         1 <0>         0.1332
     47 H14         1.2339   -3.8028   -4.7887 H         1 <0>         0.1289
     48 H15         0.0539   -1.8044   -5.6082 H         1 <0>         0.1331
     49 H16        -1.9318    0.9577   -5.7860 H         1 <0>         0.1041
     50 H17        -1.6591   -0.7643   -6.2185 H         1 <0>         0.0584
     51 H18        -0.2781    0.2616   -5.7018 H         1 <0>         0.0570
     52 H19         5.9109    7.2977    1.1169 H         1 <0>         0.4319
     53 H20         8.0544   11.4349   -0.1011 H         1 <0>         0.0637
     54 H21         6.3814   11.7654    0.4633 H         1 <0>         0.0631
     55 H22         6.6615   11.1323   -1.1942 H         1 <0>         0.0627
     56 H23         8.4311    9.9598    1.8800 H         1 <0>         0.0710
     57 H24         7.3092    8.5965    2.2110 H         1 <0>         0.0606
     58 H25         6.7581   10.2902    2.4442 H         1 <0>         0.0621
     59 H26         8.8208    9.0792   -0.4256 H         1 <0>         0.0706
     60 H27         7.4280    8.7765   -1.5187 H         1 <0>         0.0611
     61 H28         7.6989    7.7160   -0.0944 H         1 <0>         0.0623
@<TRIPOS>BOND
     1    1    2 1
     2    1   35 1
     3    1   36 1
     4    1   37 1
     5    2    3 1
     6    2    4 1
     7    2   28 1
     8    4    5 2
     9    4    6 am
    10    6    7 1
    11    6   38 1
    12    7    8 am
    13    7   39 1
    14    8    9 2
    15    8   10 1
    16   10   15 ar
    17   10   11 ar
    18   11   12 ar
    19   11   40 1
    20   12   13 ar
    21   12   41 1
    22   13   14 ar
    23   13   42 1
    24   14   15 ar
    25   14   16 1
    26   15   43 1
    27   16   17 2
    28   16   18 2
    29   16   19 1
    30   19   20 1
    31   19   44 1
    32   20   25 ar
    33   20   21 ar
    34   21   22 ar
    35   21   45 1
    36   22   23 ar
    37   22   46 1
    38   23   24 ar
    39   23   47 1
    40   24   25 ar
    41   24   48 1
    42   25   26 1
    43   26   27 1
    44   27   49 1
    45   27   50 1
    46   27   51 1
    47   28   29 am
    48   28   52 1
    49   29   30 2
    50   29   31 1
    51   31   32 1
    52   31   33 1
    53   31   34 1
    54   32   53 1
    55   32   54 1
    56   32   55 1
    57   33   56 1
    58   33   57 1
    59   33   58 1
    60   34   59 1
    61   34   60 1
    62   34   61 1
@<TRIPOS>MOLECULE
ZINC40721590
   67    69     0     0     0
SMALL
USER_CHARGES

@<TRIPOS>ATOM
      1 C1         -0.0187    1.5258    0.0104 C.3       1 <0>        -0.1533
      2 C2          0.0021   -0.0041    0.0020 C.3       1 <0>         0.0531
      3 O1          0.6709   -0.4649   -1.1737 O.3       1 <0>        -0.2963
      4 C3          0.7768   -1.8109   -1.3363 C.ar      1 <0>         0.1105
      5 C4          0.2435   -2.6690   -0.3879 C.ar      1 <0>        -0.1545
      6 C5          0.3516   -4.0370   -0.5549 C.ar      1 <0>        -0.1413
      7 C6          0.9916   -4.5523   -1.6668 C.ar      1 <0>        -0.0791
      8 C7          1.5263   -3.7019   -2.6164 C.ar      1 <0>        -0.1764
      9 C8          1.4160   -2.3297   -2.4582 C.ar      1 <0>         0.1241
     10 O2          1.9361   -1.4917   -3.3945 O.3       1 <0>        -0.2727
     11 C9          2.5780   -2.0947   -4.5199 C.3       1 <0>         0.0354
     12 C10         3.0884   -1.0186   -5.4433 C.2       1 <0>         0.5176
     13 O3          2.9191    0.1496   -5.1650 O.2       1 <0>        -0.5046
     14 N1          3.7330   -1.3545   -6.5782 N.am      1 <0>        -0.7212
     15 C11         4.2291   -0.3084   -7.4759 C.3       1 <0>         0.1709
     16 C12         5.2322    0.5719   -6.7278 C.3       1 <0>        -0.1665
     17 C13         4.9164   -0.9541   -8.6808 C.3       1 <0>        -0.1566
     18 C14         3.0569    0.5493   -7.9565 C.3       1 <0>        -0.1662
     19 C15        -0.2290   -4.9686    0.4775 C.3       1 <0>         0.0376
     20 N2         -1.6205   -5.2826    0.1265 N.4       1 <0>        -0.4802
     21 C16        -2.1865   -6.1907    1.1329 C.3       1 <0>        -0.0457
     22 H1         -2.0772   -5.7490    2.1233 H         1 <0>         0.1281
     23 C17        -3.6702   -6.4189    0.8370 C.3       1 <0>        -0.0445
     24 C18        -4.4206   -5.1225    1.0029 C.2       1 <0>        -0.2092
     25 C19        -5.0644   -4.7080    2.1054 C.2       1 <0>         0.0832
     26 N3         -5.6284   -3.4814    1.8830 N.pl3     1 <0>        -0.5904
     27 H2         -6.1445   -2.9792    2.5329 H         1 <0>         0.4207
     28 C20        -5.3544   -3.0660    0.5991 C.ar      1 <0>         0.0991
     29 C21        -4.5804   -4.0730   -0.0065 C.ar      1 <0>        -0.1165
     30 C22        -4.1460   -3.9198   -1.3242 C.ar      1 <0>        -0.0999
     31 C23        -4.4723   -2.7891   -2.0190 C.ar      1 <0>        -0.1284
     32 C24        -5.2320   -1.7912   -1.4248 C.ar      1 <0>        -0.0962
     33 C25        -5.6791   -1.9260   -0.1284 C.ar      1 <0>        -0.1198
     34 C26        -1.4568   -7.5085    1.0873 C.2       1 <0>         0.4954
     35 O4         -0.5493   -7.6757    0.2904 O.co2     1 <0>        -0.6696
     36 O5         -1.7739   -8.4075    1.8475 O.co2     1 <0>        -0.6347
     37 H3          1.0039    1.9031    0.0027 H         1 <0>         0.0691
     38 H4         -0.5459    1.8868   -0.8726 H         1 <0>         0.0686
     39 H5         -0.5289    1.8773    0.9072 H         1 <0>         0.0792
     40 H6          0.5293   -0.3651    0.8851 H         1 <0>         0.0619
     41 H7         -1.0205   -0.3814    0.0098 H         1 <0>         0.0607
     42 H8         -0.2563   -2.2690    0.4819 H         1 <0>         0.1382
     43 H9          1.0743   -5.6217   -1.7935 H         1 <0>         0.1455
     44 H10         2.0261   -4.1070   -3.4839 H         1 <0>         0.1433
     45 H11         3.4131   -2.7058   -4.1775 H         1 <0>         0.0954
     46 H12         1.8634   -2.7219   -5.0528 H         1 <0>         0.0951
     47 H13         3.8683   -2.2889   -6.8008 H         1 <0>         0.4009
     48 H14         6.0673   -0.0392   -6.3854 H         1 <0>         0.0553
     49 H15         5.6014    1.3502   -7.3957 H         1 <0>         0.0659
     50 H16         4.7426    1.0319   -5.8694 H         1 <0>         0.0783
     51 H17         4.2017   -1.5813   -9.2137 H         1 <0>         0.0634
     52 H18         5.2855   -0.1758   -9.3486 H         1 <0>         0.0765
     53 H19         5.7515   -1.5652   -8.3383 H         1 <0>         0.0635
     54 H20         2.5673    1.0093   -7.0982 H         1 <0>         0.0782
     55 H21         3.4260    1.3276   -8.6244 H         1 <0>         0.0659
     56 H22         2.3422   -0.0779   -8.4895 H         1 <0>         0.0551
     57 H23         0.3549   -5.8886    0.5061 H         1 <0>         0.1676
     58 H24        -0.2005   -4.4896    1.4562 H         1 <0>         0.1181
     59 H25        -2.1610   -4.4310    0.1000 H         1 <0>         0.4048
     60 H26        -3.7858   -6.7773   -0.1858 H         1 <0>         0.0854
     61 H27        -4.0688   -7.1606    1.5292 H         1 <0>         0.1183
     62 H28        -5.1280   -5.2610    3.0309 H         1 <0>         0.1781
     63 H29        -3.5538   -4.6919   -1.7928 H         1 <0>         0.1157
     64 H30        -4.1359   -2.6711   -3.0385 H         1 <0>         0.1264
     65 H31        -5.4812   -0.9031   -1.9866 H         1 <0>         0.1294
     66 H32        -6.2688   -1.1432    0.3255 H         1 <0>         0.1238
     67 H33        -1.6469   -5.7260   -0.7795 H         1 <0>         0.4205
@<TRIPOS>BOND
     1    1    2 1
     2    1   37 1
     3    1   38 1
     4    1   39 1
     5    2    3 1
     6    2   40 1
     7    2   41 1
     8    3    4 1
     9    4    9 ar
    10    4    5 ar
    11    5    6 ar
    12    5   42 1
    13    6    7 ar
    14    6   19 1
    15    7    8 ar
    16    7   43 1
    17    8    9 ar
    18    8   44 1
    19    9   10 1
    20   10   11 1
    21   11   12 1
    22   11   45 1
    23   11   46 1
    24   12   13 2
    25   12   14 am
    26   14   15 1
    27   14   47 1
    28   15   16 1
    29   15   17 1
    30   15   18 1
    31   16   48 1
    32   16   49 1
    33   16   50 1
    34   17   51 1
    35   17   52 1
    36   17   53 1
    37   18   54 1
    38   18   55 1
    39   18   56 1
    40   19   20 1
    41   19   57 1
    42   19   58 1
    43   20   21 1
    44   20   59 1
    45   20   67 1
    46   21   22 1
    47   21   23 1
    48   21   34 1
    49   23   24 1
    50   23   60 1
    51   23   61 1
    52   24   29 1
    53   24   25 2
    54   25   26 1
    55   25   62 1
    56   26   27 1
    57   26   28 1
    58   28   33 ar
    59   28   29 ar
    60   29   30 ar
    61   30   31 ar
    62   30   63 1
    63   31   32 ar
    64   31   64 1
    65   32   33 ar
    66   32   65 1
    67   33   66 1
    68   34   35 2
    69   34   36 1
@<TRIPOS>MOLECULE
ZINC11788926
   58    60     0     0     0
SMALL
USER_CHARGES
(5R)-5-[1-[(5-chloro-1,3-dimethyl-pyrazol-4-yl)methyl]-4-piperidyl]-5-isopentyl-imidazolidine-2,4-dione
@<TRIPOS>ATOM
      1 C1         -1.2067   -0.9040    0.0087 C.3       1 <0>        -0.0923
      2 C2          0.0021   -0.0041    0.0020 C.2       1 <0>         0.1097
      3 C3          1.3364   -0.4232   -0.0130 C.2       1 <0>        -0.2945
      4 C4          2.1199    0.6818   -0.0145 C.2       1 <0>         0.1572
      5 N1          1.3086    1.7606   -0.0010 N.pl3     1 <0>        -0.3387
      6 N2         -0.0157    1.3041    0.0092 N.2       1 <0>        -0.2482
      7 C5          1.7375    3.1614    0.0020 C.3       1 <0>         0.0808
      8 Cl1         3.8556    0.7061   -0.0310 Cl        1 <0>         0.0205
      9 C6          1.8172   -1.8514   -0.0252 C.3       1 <0>         0.0862
     10 C7          2.6521   -1.3022   -2.2302 C.3       1 <0>        -0.0041
     11 C8          2.6542   -1.7454   -3.6950 C.3       1 <0>        -0.1513
     12 C9          3.3605   -3.0989   -3.8126 C.3       1 <0>        -0.0923
     13 C10         2.6495   -4.1163   -2.9160 C.3       1 <0>        -0.1543
     14 C11         2.6475   -3.6044   -1.4738 C.3       1 <0>         0.0045
     15 C12         3.3138   -3.5769   -5.2652 C.3       1 <0>         0.1292
     16 C13         1.9003   -3.9615   -5.6550 C.2       1 <0>         0.5329
     17 O1          0.9250   -3.2416   -5.6763 O.2       1 <0>        -0.4601
     18 N3          1.9531   -5.2703   -5.9719 N.am      1 <0>        -0.6789
     19 C14         3.1905   -5.7610   -5.8379 C.2       1 <0>         0.7020
     20 O2          3.4872   -6.9173   -6.0660 O.2       1 <0>        -0.5225
     21 N4          4.0698   -4.8314   -5.4226 N.am      1 <0>        -0.7175
     22 C15         3.8597   -2.4982   -6.2030 C.3       1 <0>        -0.1214
     23 C16         3.8018   -3.0009   -7.6469 C.3       1 <0>        -0.1228
     24 C17         4.3477   -1.9222   -8.5847 C.3       1 <0>        -0.0930
     25 C18         5.8328   -1.6973   -8.2936 C.3       1 <0>        -0.1512
     26 C19         4.1752   -2.3736  -10.0364 C.3       1 <0>        -0.1524
     27 H1         -1.5076   -1.1159   -1.0173 H         1 <0>         0.0895
     28 H2         -0.9619   -1.8374    0.5156 H         1 <0>         0.0849
     29 H3         -2.0248   -0.4098    0.5327 H         1 <0>         0.0933
     30 H4          1.8539    3.5035    1.0304 H         1 <0>         0.0961
     31 H5          2.6897    3.2510   -0.5208 H         1 <0>         0.0999
     32 H6          0.9878    3.7719   -0.5013 H         1 <0>         0.1097
     33 H7          2.7815   -1.9145    0.4791 H         1 <0>         0.1360
     34 H8          1.0946   -2.4825    0.4921 H         1 <0>         0.1420
     35 H9          2.1374   -0.3455   -2.1409 H         1 <0>         0.1271
     36 H10         3.6793   -1.1956   -1.8815 H         1 <0>         0.1292
     37 H11         3.1815   -1.0062   -4.2981 H         1 <0>         0.1203
     38 H12         1.6274   -1.8388   -4.0484 H         1 <0>         0.1060
     39 H13         4.3984   -2.9969   -3.4958 H         1 <0>         0.1137
     40 H14         3.1734   -5.0710   -2.9625 H         1 <0>         0.1181
     41 H15         1.6226   -4.2470   -3.2572 H         1 <0>         0.0875
     42 H16         3.6747   -3.4870   -1.1286 H         1 <0>         0.1350
     43 H17         2.1294   -4.3198   -0.8351 H         1 <0>         0.1358
     44 H18         1.1882   -5.7922   -6.2608 H         1 <0>         0.4380
     45 H19         5.0168   -4.9619   -5.2582 H         1 <0>         0.4446
     46 H20         3.2566   -1.5952   -6.1082 H         1 <0>         0.0931
     47 H21         4.8928   -2.2746   -5.9372 H         1 <0>         0.0952
     48 H22         4.4050   -3.9039   -7.7417 H         1 <0>         0.0716
     49 H23         2.7687   -3.2245   -7.9127 H         1 <0>         0.0603
     50 H24         3.8014   -0.9924   -8.4260 H         1 <0>         0.0718
     51 H25         6.2217   -0.9288   -8.9617 H         1 <0>         0.0592
     52 H26         5.9557   -1.3757   -7.2594 H         1 <0>         0.0534
     53 H27         6.3791   -2.6271   -8.4523 H         1 <0>         0.0567
     54 H28         3.1172   -2.5339  -10.2438 H         1 <0>         0.0550
     55 H29         4.5641   -1.6051  -10.7045 H         1 <0>         0.0603
     56 H30         4.7215   -3.3034  -10.1951 H         1 <0>         0.0564
     57 N5          1.9323   -2.3113   -1.4246 N.4       1 <0>        -0.3942
     58 H31         0.9901   -2.4369   -1.8128 H         1 <0>         0.4273
@<TRIPOS>BOND
     1    1    2 1
     2    1   27 1
     3    1   28 1
     4    1   29 1
     5    2    6 2
     6    2    3 1
     7    3    4 2
     8    3    9 1
     9    4    5 1
    10    4    8 1
    11    5    6 1
    12    5    7 1
    13    7   30 1
    14    7   31 1
    15    7   32 1
    16    9   33 1
    17    9   34 1
    18    9   57 1
    19   10   11 1
    20   10   35 1
    21   10   36 1
    22   10   57 1
    23   11   12 1
    24   11   37 1
    25   11   38 1
    26   12   13 1
    27   12   15 1
    28   12   39 1
    29   13   14 1
    30   13   40 1
    31   13   41 1
    32   14   42 1
    33   14   43 1
    34   14   57 1
    35   15   21 1
    36   15   16 1
    37   15   22 1
    38   16   17 2
    39   16   18 am
    40   18   19 am
    41   18   44 1
    42   19   20 2
    43   19   21 am
    44   21   45 1
    45   22   23 1
    46   22   46 1
    47   22   47 1
    48   23   24 1
    49   23   48 1
    50   23   49 1
    51   24   25 1
    52   24   26 1
    53   24   50 1
    54   25   51 1
    55   25   52 1
    56   25   53 1
    57   26   54 1
    58   26   55 1
    59   26   56 1
    60   57   58 1
@<TRIPOS>MOLECULE
ZINC22695923
   62    64     0     0     0
SMALL
USER_CHARGES

@<TRIPOS>ATOM
      1 C1         -0.0187    1.5258    0.0104 C.3       1 <0>        -0.1528
      2 C2          0.0021   -0.0041    0.0020 C.3       1 <0>        -0.0835
      3 H1         -1.0206   -0.3810    0.0098 H         1 <0>         0.0936
      4 C3          0.7176   -0.4972   -1.2582 C.3       1 <0>        -0.1223
      5 C4          0.7562   -2.0268   -1.2558 C.3       1 <0>        -0.1200
      6 C5          1.5190   -2.5166   -0.0231 C.3       1 <0>        -0.1275
      7 C6          0.8066   -2.0318    1.2421 C.3       1 <0>        -0.1142
      8 C7          0.7385   -0.5087    1.2380 C.3       1 <0>         0.1302
      9 C8          2.1279    0.0825    1.3028 C.2       1 <0>         0.5437
     10 O1          3.0225   -0.0554    0.4963 O.2       1 <0>        -0.4536
     11 N1          2.1630    0.7961    2.4472 N.am      1 <0>        -0.5658
     12 C9          0.9975    0.7342    3.1027 C.2       1 <0>         0.7102
     13 O2          0.7856    1.2961    4.1594 O.2       1 <0>        -0.5415
     14 N2          0.0861   -0.0206    2.4599 N.am      1 <0>        -0.7143
     15 C10         3.3318    1.5455    2.9148 C.3       1 <0>         0.0994
     16 C11         3.2773    2.9507    2.3731 C.2       1 <0>         0.5052
     17 O3          2.3531    3.2926    1.6661 O.2       1 <0>        -0.5115
     18 N3          4.2555    3.8274    2.6743 N.am      1 <0>        -0.7334
     19 C12         4.2025    5.1935    2.1477 C.3       1 <0>         0.1252
     20 C13         5.4232    5.9761    2.6360 C.3       1 <0>        -0.1631
     21 C14         5.3678    7.4027    2.0861 C.3       1 <0>        -0.0060
     22 N4          6.5398    8.1541    2.5549 N.4       1 <0>        -0.3820
     23 C15         6.4803    8.2893    4.0153 C.3       1 <0>        -0.0124
     24 C16         7.7389    9.0004    4.5172 C.3       1 <0>        -0.1428
     25 C17         7.8235   10.3891    3.8773 C.3       1 <0>        -0.1049
     26 C18         7.8099   10.2399    2.3533 C.3       1 <0>        -0.1435
     27 C19         6.5487    9.4829    1.9316 C.3       1 <0>        -0.0064
     28 C20         9.1200   11.0750    4.3128 C.3       1 <0>        -0.1544
     29 H2          1.0039    1.9031    0.0027 H         1 <0>         0.0599
     30 H3         -0.5459    1.8868   -0.8726 H         1 <0>         0.0657
     31 H4         -0.5289    1.8773    0.9072 H         1 <0>         0.0579
     32 H5          0.1812   -0.1486   -2.1407 H         1 <0>         0.0736
     33 H6          1.7356   -0.1080   -1.2740 H         1 <0>         0.0787
     34 H7         -0.2618   -2.4158   -1.2313 H         1 <0>         0.0654
     35 H8          1.2579   -2.3789   -2.1571 H         1 <0>         0.0705
     36 H9          1.5534   -3.6061   -0.0261 H         1 <0>         0.0751
     37 H10         2.5343   -2.1207   -0.0429 H         1 <0>         0.0790
     38 H11        -0.2035   -2.4406    1.2692 H         1 <0>         0.0891
     39 H12         1.3576   -2.3682    2.1204 H         1 <0>         0.0741
     40 H13        -0.8220   -0.2051    2.7469 H         1 <0>         0.4430
     41 H14         3.3318    1.5758    4.0044 H         1 <0>         0.1305
     42 H15         4.2408    1.0562    2.5650 H         1 <0>         0.1283
     43 H16         4.9947    3.5540    3.2398 H         1 <0>         0.4053
     44 H17         4.2025    5.1631    1.0581 H         1 <0>         0.0795
     45 H18         3.2935    5.6828    2.4976 H         1 <0>         0.0794
     46 H19         5.4232    6.0064    3.7256 H         1 <0>         0.0957
     47 H20         6.3322    5.4868    2.2862 H         1 <0>         0.0959
     48 H21         5.3678    7.3723    0.9965 H         1 <0>         0.1359
     49 H22         4.4588    7.8920    2.4359 H         1 <0>         0.1342
     50 H23         5.6007    8.8713    4.2903 H         1 <0>         0.1295
     51 H24         6.4170    7.3003    4.4690 H         1 <0>         0.1310
     52 H25         7.6920    9.1014    5.6015 H         1 <0>         0.1124
     53 H26         8.6192    8.4191    4.2429 H         1 <0>         0.0882
     54 H27         6.9692   10.9883    4.1925 H         1 <0>         0.0886
     55 H28         7.8137   11.2269    1.8909 H         1 <0>         0.1130
     56 H29         8.6917    9.6843    2.0341 H         1 <0>         0.0884
     57 H30         6.5358    9.3751    0.8470 H         1 <0>         0.1314
     58 H31         5.6676   10.0395    2.2510 H         1 <0>         0.1292
     59 H32         9.9728   10.4760    3.9935 H         1 <0>         0.0620
     60 H33         9.1791   12.0633    3.8568 H         1 <0>         0.0677
     61 H34         9.1317   11.1743    5.3982 H         1 <0>         0.0676
     62 H35         7.3805    7.6581    2.2991 H         1 <0>         0.4226
@<TRIPOS>BOND
     1    1    2 1
     2    1   29 1
     3    1   30 1
     4    1   31 1
     5    2    3 1
     6    2    8 1
     7    2    4 1
     8    4    5 1
     9    4   32 1
    10    4   33 1
    11    5    6 1
    12    5   34 1
    13    5   35 1
    14    6    7 1
    15    6   36 1
    16    6   37 1
    17    7    8 1
    18    7   38 1
    19    7   39 1
    20    8   14 1
    21    8    9 1
    22    9   10 2
    23    9   11 am
    24   11   12 am
    25   11   15 1
    26   12   13 2
    27   12   14 am
    28   14   40 1
    29   15   16 1
    30   15   41 1
    31   15   42 1
    32   16   17 2
    33   16   18 am
    34   18   19 1
    35   18   43 1
    36   19   20 1
    37   19   44 1
    38   19   45 1
    39   20   21 1
    40   20   46 1
    41   20   47 1
    42   21   22 1
    43   21   48 1
    44   21   49 1
    45   22   27 1
    46   22   23 1
    47   22   62 1
    48   23   24 1
    49   23   50 1
    50   23   51 1
    51   24   25 1
    52   24   52 1
    53   24   53 1
    54   25   26 1
    55   25   28 1
    56   25   54 1
    57   26   27 1
    58   26   55 1
    59   26   56 1
    60   27   57 1
    61   27   58 1
    62   28   59 1
    63   28   60 1
    64   28   61 1
@<TRIPOS>MOLECULE
ZINC54579985
   55    57     0     0     0
SMALL
USER_CHARGES

@<TRIPOS>ATOM
      1 C1         -0.0147    1.5224    0.0072 C.3       1 <0>        -0.1624
      2 C2          0.0005   -0.0075    0.0011 C.3       1 <0>         0.1953
      3 H1         -1.0235   -0.3811    0.0111 H         1 <0>         0.1070
      4 C3          0.7021   -0.4980   -1.2391 C.ar      1 <0>        -0.0433
      5 C4          2.0833   -0.5237   -1.2874 C.ar      1 <0>        -0.1398
      6 C5          2.7269   -0.9736   -2.4251 C.ar      1 <0>        -0.0120
      7 C6          1.9892   -1.3981   -3.5144 C.ar      1 <0>        -0.6724
      8 C7          0.6079   -1.3732   -3.4657 C.ar      1 <0>        -0.0115
      9 C8         -0.0357   -0.9274   -2.3265 C.ar      1 <0>        -0.1241
     10 S1          2.8095   -1.9705   -4.9649 S.o2      1 <0>         2.6936
     11 O1          1.8984   -1.7977   -6.0416 O.2       1 <0>        -0.9479
     12 O2          4.1027   -1.3816   -4.9593 O.2       1 <0>        -0.9538
     13 N1          3.0317   -3.6022   -4.7902 N.pl3     1 <0>        -1.1192
     14 C9          1.8734   -4.4972   -4.7330 C.3       1 <0>         0.0810
     15 N2          0.7092   -0.4935    1.1876 N.am      1 <0>        -0.7343
     16 C10         0.0512   -0.6335    2.3554 C.2       1 <0>         0.7142
     17 O3         -1.1059   -0.2718    2.4484 O.2       1 <0>        -0.5593
     18 N3          0.6758   -1.1742    3.4203 N.am      1 <0>        -0.6461
     19 C11         2.1076   -1.5080    3.3683 C.3       1 <0>         0.0875
     20 C12         2.7931   -0.8995    4.5961 C.3       1 <0>        -0.0207
     21 N4          2.1087   -1.3540    5.8131 N.4       1 <0>        -0.3810
     22 C13         0.7329   -0.8413    5.8342 C.3       1 <0>        -0.0211
     23 C14        -0.0534   -1.4418    4.6696 C.3       1 <0>         0.1067
     24 C15         2.8315   -0.8600    6.9927 C.3       1 <0>         0.0268
     25 C16         2.1936   -1.4344    8.2592 C.3       1 <0>        -0.2138
     26 C17         1.5549   -0.4476    9.2386 C.3       1 <0>        -0.1680
     27 C18         2.8767   -1.1311    9.5943 C.3       1 <0>        -0.1480
     28 H2          1.0092    1.8960   -0.0028 H         1 <0>         0.0615
     29 H3         -0.5421    1.8840   -0.8755 H         1 <0>         0.0772
     30 H4         -0.5222    1.8771    0.9043 H         1 <0>         0.0714
     31 H5          2.6597   -0.1920   -0.4364 H         1 <0>         0.1262
     32 H6          3.8060   -0.9931   -2.4631 H         1 <0>         0.1445
     33 H7          0.0315   -1.7046   -4.3169 H         1 <0>         0.1478
     34 H8         -1.1148   -0.9114   -2.2871 H         1 <0>         0.1398
     35 H9          3.9289   -3.9653   -4.7257 H         1 <0>         0.4213
     36 H10         2.2145   -5.5260   -4.6167 H         1 <0>         0.0865
     37 H11         1.2452   -4.2247   -3.8849 H         1 <0>         0.0581
     38 H12         1.2986   -4.4070   -5.6547 H         1 <0>         0.0725
     39 H13         1.6521   -0.7147    1.1326 H         1 <0>         0.3948
     40 H14         2.2318   -2.5909    3.3785 H         1 <0>         0.0999
     41 H15         2.5474   -1.0945    2.4607 H         1 <0>         0.1190
     42 H16         3.8354   -1.2171    4.6252 H         1 <0>         0.1457
     43 H17         2.7459    0.1879    4.5371 H         1 <0>         0.1346
     44 H18         0.2570   -1.1161    6.7755 H         1 <0>         0.1468
     45 H19         0.7480    0.2443    5.7377 H         1 <0>         0.1334
     46 H20        -1.0417   -0.9844    4.6219 H         1 <0>         0.1396
     47 H21        -0.1511   -2.5178    4.8134 H         1 <0>         0.0940
     48 H22         3.8742   -1.1727    6.9372 H         1 <0>         0.1348
     49 H23         2.7796    0.2284    7.0213 H         1 <0>         0.1295
     50 H24         1.7200   -2.4097    8.1463 H         1 <0>         0.1257
     51 H25         1.5892    0.6109    8.9805 H         1 <0>         0.1061
     52 H26         0.6608   -0.7734    9.7701 H         1 <0>         0.1111
     53 H27         2.8522   -1.9067   10.3598 H         1 <0>         0.1129
     54 H28         3.7805   -0.5224    9.5703 H         1 <0>         0.1077
     55 H29         2.0907   -2.3627    5.8307 H         1 <0>         0.4239
@<TRIPOS>BOND
     1    1    2 1
     2    1   28 1
     3    1   29 1
     4    1   30 1
     5    2    3 1
     6    2    4 1
     7    2   15 1
     8    4    9 ar
     9    4    5 ar
    10    5    6 ar
    11    5   31 1
    12    6    7 ar
    13    6   32 1
    14    7    8 ar
    15    7   10 1
    16    8    9 ar
    17    8   33 1
    18    9   34 1
    19   10   11 2
    20   10   12 2
    21   10   13 1
    22   13   14 1
    23   13   35 1
    24   14   36 1
    25   14   37 1
    26   14   38 1
    27   15   16 am
    28   15   39 1
    29   16   17 2
    30   16   18 am
    31   18   23 1
    32   18   19 1
    33   19   20 1
    34   19   40 1
    35   19   41 1
    36   20   21 1
    37   20   42 1
    38   20   43 1
    39   21   22 1
    40   21   24 1
    41   21   55 1
    42   22   23 1
    43   22   44 1
    44   22   45 1
    45   23   46 1
    46   23   47 1
    47   24   25 1
    48   24   48 1
    49   24   49 1
    50   25   27 1
    51   25   26 1
    52   25   50 1
    53   26   27 1
    54   26   51 1
    55   26   52 1
    56   27   53 1
    57   27   54 1
@<TRIPOS>MOLECULE
ZINC64482659
   56    58     0     0     0
SMALL
USER_CHARGES

@<TRIPOS>ATOM
      1 C1          3.8572   -2.8327   -1.3614 C.2       1 <0>        -0.2174
      2 C2          3.1582   -1.8642   -0.6050 C.2       1 <0>        -0.1317
      3 C3          3.8783   -0.7296   -0.6638 C.2       1 <0>        -0.1172
      4 O1          4.9702   -0.9583   -1.4116 O.3       1 <0>        -0.1704
      5 C4          4.9627   -2.2320   -1.8373 C.2       1 <0>         0.0145
      6 C5          3.5203    0.5767   -0.0032 C.3       1 <0>         0.0879
      7 N1          3.9925    0.5676    1.3877 N.4       1 <0>        -0.3708
      8 C6          3.5289    1.7830    2.0703 C.3       1 <0>        -0.0357
      9 C7          2.0036    1.7521    2.1868 C.3       1 <0>         0.0572
     10 C8          1.5082    3.0198    2.9154 C.3       1 <0>        -0.1466
     11 C9          0.3645    2.4623    3.8060 C.3       1 <0>        -0.1563
     12 C10         0.9192    1.0576    4.1521 C.3       1 <0>         0.0506
     13 O2          1.5986    0.6196    2.9646 O.3       1 <0>        -0.3808
     14 C11         5.4608    0.5257    1.4061 C.3       1 <0>        -0.0326
     15 C12         5.9419    0.3925    2.8280 C.2       1 <0>         0.5120
     16 O3          5.1408    0.3380    3.7363 O.2       1 <0>        -0.4465
     17 N2          7.2626    0.3341    3.0899 N.am      1 <0>        -0.6774
     18 C13         7.6928    0.2150    4.3616 C.2       1 <0>         0.6928
     19 O4          6.8897    0.1604    5.2722 O.2       1 <0>        -0.5162
     20 N3          9.0136    0.1566    4.6235 N.am      1 <0>        -0.7239
     21 C14         9.4812    0.0272    6.0059 C.3       1 <0>         0.1585
     22 C15         9.5643    1.4134    6.6480 C.3       1 <0>        -0.1293
     23 C16        10.0527    1.2782    8.0917 C.3       1 <0>        -0.1188
     24 C17        11.4372    0.6272    8.1029 C.3       1 <0>        -0.1249
     25 C18        11.3541   -0.7591    7.4607 C.3       1 <0>        -0.1176
     26 C19        10.8657   -0.6239    6.0170 C.3       1 <0>        -0.1264
     27 H1          3.5626   -3.8592   -1.5224 H         1 <0>         0.1644
     28 H2          2.2248   -2.0077   -0.0810 H         1 <0>         0.1633
     29 H3          5.7166   -2.6955   -2.4564 H         1 <0>         0.2197
     30 H4          3.9929    1.3979   -0.5421 H         1 <0>         0.1487
     31 H5          2.4382    0.7071   -0.0187 H         1 <0>         0.1622
     32 H6          3.9685    1.8304    3.0665 H         1 <0>         0.1521
     33 H7          3.8318    2.6594    1.4974 H         1 <0>         0.1412
     34 H8          1.5581    1.6970    1.1935 H         1 <0>         0.1046
     35 H9          2.3011    3.4505    3.5269 H         1 <0>         0.0888
     36 H10         1.1247    3.7512    2.2041 H         1 <0>         0.0989
     37 H11         0.2361    3.0662    4.7042 H         1 <0>         0.0965
     38 H12        -0.5685    2.3895    3.2471 H         1 <0>         0.0876
     39 H13         1.6182    1.1218    4.9859 H         1 <0>         0.0735
     40 H14         0.1026    0.3772    4.3935 H         1 <0>         0.0995
     41 H15         5.8072   -0.3283    0.8239 H         1 <0>         0.1630
     42 H16         5.8560    1.4447    0.9734 H         1 <0>         0.1677
     43 H17         7.9036    0.3777    2.3632 H         1 <0>         0.4180
     44 H18         9.6546    0.2002    3.8968 H         1 <0>         0.4013
     45 H19         8.7836   -0.5928    6.5689 H         1 <0>         0.0940
     46 H20        10.2620    2.0334    6.0850 H         1 <0>         0.0658
     47 H21         8.5780    1.8772    6.6401 H         1 <0>         0.0662
     48 H22        10.1119    2.2658    8.5492 H         1 <0>         0.0690
     49 H23         9.3551    0.6582    8.6547 H         1 <0>         0.0665
     50 H24        12.1348    1.2472    7.5399 H         1 <0>         0.0645
     51 H25        11.7851    0.5309    9.1314 H         1 <0>         0.0688
     52 H26        12.3405   -1.2229    7.4687 H         1 <0>         0.0726
     53 H27        10.6565   -1.3791    8.0237 H         1 <0>         0.0675
     54 H28        10.8065   -1.6115    5.5595 H         1 <0>         0.0707
     55 H29        11.5634   -0.0039    5.4540 H         1 <0>         0.0711
     56 H30         3.6269   -0.2446    1.8618 H         1 <0>         0.4389
@<TRIPOS>BOND
     1    1    5 2
     2    1    2 1
     3    1   27 1
     4    2    3 2
     5    2   28 1
     6    3    4 1
     7    3    6 1
     8    4    5 1
     9    5   29 1
    10    6    7 1
    11    6   30 1
    12    6   31 1
    13    7    8 1
    14    7   14 1
    15    7   56 1
    16    8    9 1
    17    8   32 1
    18    8   33 1
    19    9   13 1
    20    9   10 1
    21    9   34 1
    22   10   11 1
    23   10   35 1
    24   10   36 1
    25   11   12 1
    26   11   37 1
    27   11   38 1
    28   12   13 1
    29   12   39 1
    30   12   40 1
    31   14   15 1
    32   14   41 1
    33   14   42 1
    34   15   16 2
    35   15   17 am
    36   17   18 am
    37   17   43 1
    38   18   19 2
    39   18   20 am
    40   20   21 1
    41   20   44 1
    42   21   26 1
    43   21   22 1
    44   21   45 1
    45   22   23 1
    46   22   46 1
    47   22   47 1
    48   23   24 1
    49   23   48 1
    50   23   49 1
    51   24   25 1
    52   24   50 1
    53   24   51 1
    54   25   26 1
    55   25   52 1
    56   25   53 1
    57   26   54 1
    58   26   55 1
@<TRIPOS>MOLECULE
ZINC67011255
   53    57     0     0     0
SMALL
USER_CHARGES

@<TRIPOS>ATOM
      1 C1          0.3005    0.8220    0.1994 C.ar      1 <0>        -0.0826
      2 C2          1.5692    1.3743    0.2242 C.ar      1 <0>        -0.1154
      3 C3          2.6783    0.5489    0.1560 C.ar      1 <0>         0.1042
      4 C4          2.5169   -0.8264    0.0627 C.ar      1 <0>         0.0718
      5 C5          1.2466   -1.3756    0.0380 C.ar      1 <0>        -0.0910
      6 C6          0.1399   -0.5476    0.1066 C.ar      1 <0>        -0.1607
      7 C7         -1.2450   -1.1412    0.0801 C.3       1 <0>         0.0473
      8 N1         -1.7095   -1.2387   -1.3102 N.4       1 <0>        -0.5104
      9 C8         -3.0595   -1.8173   -1.3360 C.3       1 <0>         0.0815
     10 C9         -3.5305   -1.9300   -2.7630 C.2       1 <0>        -0.3120
     11 C10        -4.4107   -1.1097   -3.3773 C.2       1 <0>         0.1221
     12 N2         -4.5689   -1.5433   -4.6463 N.pl3     1 <0>        -0.4531
     13 H1         -5.1437   -1.1428   -5.3172 H         1 <0>         0.4553
     14 N3         -3.7588   -2.6718   -4.8258 N.2       1 <0>        -0.2551
     15 C11        -3.1266   -2.9056   -3.6952 C.2       1 <0>         0.1468
     16 C12        -2.1618   -4.0053   -3.4456 C.ar      1 <0>        -0.0463
     17 C13        -2.2242   -4.7329   -2.2589 C.ar      1 <0>        -0.1049
     18 C14        -1.3256   -5.7538   -2.0280 C.ar      1 <0>        -0.1103
     19 C15        -0.3579   -6.0607   -2.9748 C.ar      1 <0>         0.0738
     20 C16        -0.2927   -5.3390   -4.1621 C.ar      1 <0>         0.0579
     21 C17        -1.1956   -4.3160   -4.3994 C.ar      1 <0>        -0.0809
     22 O1          0.6450   -5.6319   -5.1046 O.3       1 <0>        -0.3021
     23 C18         1.7627   -6.4183   -4.6780 C.3       1 <0>         0.0196
     24 C19         1.2329   -7.5967   -3.8498 C.3       1 <0>         0.0172
     25 O2          0.5213   -7.0696   -2.7249 O.3       1 <0>        -0.3011
     26 O3          3.6169   -1.6314   -0.0031 O.3       1 <0>        -0.3149
     27 C20         4.3910   -1.5350   -1.2005 C.3       1 <0>         0.0612
     28 C21         5.3781   -0.3817   -1.1134 C.3       1 <0>        -0.1937
     29 C22         4.6845    0.9690   -1.0306 C.3       1 <0>         0.0617
     30 O4          3.9350    1.0804    0.1810 O.3       1 <0>        -0.3169
     31 H2         -0.5668    1.4630    0.2573 H         1 <0>         0.1421
     32 H3          1.6934    2.4447    0.2969 H         1 <0>         0.1481
     33 H4          1.1196   -2.4456   -0.0353 H         1 <0>         0.1441
     34 H5         -1.2228   -2.1354    0.5263 H         1 <0>         0.1411
     35 H6         -1.9244   -0.5040    0.6462 H         1 <0>         0.1433
     36 H7         -1.7301   -0.3183   -1.7232 H         1 <0>         0.4254
     37 H8         -3.0391   -2.8076   -0.8809 H         1 <0>         0.1374
     38 H9         -3.7408   -1.1750   -0.7781 H         1 <0>         0.1405
     39 H10        -4.9019   -0.2574   -2.9316 H         1 <0>         0.1933
     40 H11        -2.9757   -4.4974   -1.5199 H         1 <0>         0.1373
     41 H12        -1.3749   -6.3161   -1.1072 H         1 <0>         0.1463
     42 H13        -1.1476   -3.7563   -5.3218 H         1 <0>         0.1417
     43 H14         2.3017   -6.7934   -5.5481 H         1 <0>         0.1305
     44 H15         2.4287   -5.8093   -4.0667 H         1 <0>         0.0819
     45 H16         0.5615   -8.2018   -4.4590 H         1 <0>         0.0854
     46 H17         2.0670   -8.2073   -3.5039 H         1 <0>         0.1314
     47 H18         4.9387   -2.4656   -1.3496 H         1 <0>         0.1122
     48 H19         3.7236   -1.3729   -2.0470 H         1 <0>         0.0579
     49 H20         5.9991   -0.5146   -0.2276 H         1 <0>         0.0908
     50 H21         6.0175   -0.3968   -1.9961 H         1 <0>         0.0996
     51 H22         5.4341    1.7598   -1.0628 H         1 <0>         0.1147
     52 H23         4.0111    1.0792   -1.8805 H         1 <0>         0.0600
     53 H24        -1.0806   -1.8286   -1.8343 H         1 <0>         0.4260
@<TRIPOS>BOND
     1    1    6 ar
     2    1    2 ar
     3    1   31 1
     4    2    3 ar
     5    2   32 1
     6    3   30 1
     7    3    4 ar
     8    4    5 ar
     9    4   26 1
    10    5    6 ar
    11    5   33 1
    12    6    7 1
    13    7    8 1
    14    7   34 1
    15    7   35 1
    16    8    9 1
    17    8   36 1
    18    8   53 1
    19    9   10 1
    20    9   37 1
    21    9   38 1
    22   10   15 1
    23   10   11 2
    24   11   12 1
    25   11   39 1
    26   12   13 1
    27   12   14 1
    28   14   15 2
    29   15   16 1
    30   16   21 ar
    31   16   17 ar
    32   17   18 ar
    33   17   40 1
    34   18   19 ar
    35   18   41 1
    36   19   25 1
    37   19   20 ar
    38   20   21 ar
    39   20   22 1
    40   21   42 1
    41   22   23 1
    42   23   24 1
    43   23   43 1
    44   23   44 1
    45   24   25 1
    46   24   45 1
    47   24   46 1
    48   26   27 1
    49   27   28 1
    50   27   47 1
    51   27   48 1
    52   28   29 1
    53   28   49 1
    54   28   50 1
    55   29   30 1
    56   29   51 1
    57   29   52 1
@<TRIPOS>MOLECULE
ZINC14166830
   49    51     0     0     0
SMALL
USER_CHARGES
N-[4-[(1-ethyl-4-piperidyl)carbamoyl]phenyl]furan-2-carboxamide
@<TRIPOS>ATOM
      1 C1          4.5903   15.8415    1.6920 C.3       1 <0>        -0.1926
      2 C2          4.0096   15.4523    0.3310 C.3       1 <0>        -0.0055
      3 C3          3.4077   13.5564   -1.0488 C.3       1 <0>         0.0051
      4 C4          2.9928   12.0838   -1.0101 C.3       1 <0>        -0.1583
      5 C5          4.1438   11.2491   -0.4417 C.3       1 <0>         0.1371
      6 C6          4.5028   11.7713    0.9522 C.3       1 <0>        -0.1623
      7 C7          4.8739   13.2530    0.8566 C.3       1 <0>        -0.0056
      8 N1          3.7316    9.8465   -0.3479 N.am      1 <0>        -0.7297
      9 C8          4.6589    8.8687   -0.3691 C.2       1 <0>         0.5720
     10 O1          5.8376    9.1507   -0.4662 O.2       1 <0>        -0.5288
     11 C9          4.2436    7.4557   -0.2745 C.ar      1 <0>        -0.1674
     12 C10         5.2040    6.4405   -0.2964 C.ar      1 <0>        -0.0299
     13 C11         4.8133    5.1235   -0.2085 C.ar      1 <0>        -0.1509
     14 C12         3.4638    4.8024   -0.0974 C.ar      1 <0>         0.1874
     15 C13         2.5046    5.8106   -0.0807 C.ar      1 <0>        -0.1313
     16 C14         2.8891    7.1298   -0.1634 C.ar      1 <0>        -0.0607
     17 N2          3.0717    3.4685   -0.0086 N.am      1 <0>        -0.6671
     18 C15         1.9962    3.1300    0.7298 C.2       1 <0>         0.6125
     19 O2          1.4251    3.9736    1.3955 O.2       1 <0>        -0.4961
     20 C16         1.5143    1.7454    0.7310 C.2       1 <0>        -0.1003
     21 C17         0.4420    1.2694    1.4303 C.2       1 <0>        -0.0998
     22 C18         0.3457   -0.1000    1.1384 C.2       1 <0>        -0.2261
     23 C19         1.3505   -0.3965    0.2847 C.2       1 <0>         0.0115
     24 O3          2.0524    0.7180    0.0417 O.3       1 <0>        -0.1658
     25 H1          3.8755   15.5928    2.4764 H         1 <0>         0.0800
     26 H2          5.5188   15.2960    1.8602 H         1 <0>         0.0833
     27 H3          4.7901   16.9129    1.7088 H         1 <0>         0.1057
     28 H4          4.7243   15.7010   -0.4535 H         1 <0>         0.1305
     29 H5          3.0810   15.9978    0.1627 H         1 <0>         0.1287
     30 H6          4.2789   13.6714   -1.6937 H         1 <0>         0.1339
     31 H7          2.5851   14.1553   -1.4396 H         1 <0>         0.1347
     32 H8          2.7610   11.7444   -2.0196 H         1 <0>         0.1201
     33 H9          2.1131   11.9695   -0.3767 H         1 <0>         0.0946
     34 H10         5.0111   11.3308   -1.0969 H         1 <0>         0.1063
     35 H11         3.6471   11.6527    1.6168 H         1 <0>         0.0905
     36 H12         5.3499   11.2086    1.3446 H         1 <0>         0.1175
     37 H13         5.7383   13.3694    0.2028 H         1 <0>         0.1336
     38 H14         5.1163   13.6315    1.8496 H         1 <0>         0.1370
     39 H15         2.7912    9.6215   -0.2704 H         1 <0>         0.4060
     40 H16         6.2515    6.6891   -0.3819 H         1 <0>         0.1435
     41 H17         5.5549    4.3386   -0.2253 H         1 <0>         0.1397
     42 H18         1.4578    5.5580    0.0014 H         1 <0>         0.1441
     43 H19         2.1445    7.9120   -0.1458 H         1 <0>         0.1277
     44 H20         3.5727    2.7834   -0.4783 H         1 <0>         0.4219
     45 H21        -0.2086    1.8377    2.0785 H         1 <0>         0.1639
     46 H22        -0.3925   -0.7877    1.5239 H         1 <0>         0.1628
     47 H23         1.5540   -1.3715   -0.1327 H         1 <0>         0.2166
     48 N3          3.7165   14.0042    0.3260 N.4       1 <0>        -0.3966
     49 H24         2.9016   13.8269    0.9249 H         1 <0>         0.4268
@<TRIPOS>BOND
     1    1    2 1
     2    1   25 1
     3    1   26 1
     4    1   27 1
     5    2   28 1
     6    2   29 1
     7    2   48 1
     8    3    4 1
     9    3   30 1
    10    3   31 1
    11    3   48 1
    12    4    5 1
    13    4   32 1
    14    4   33 1
    15    5    6 1
    16    5    8 1
    17    5   34 1
    18    6    7 1
    19    6   35 1
    20    6   36 1
    21    7   37 1
    22    7   38 1
    23    7   48 1
    24    8    9 am
    25    8   39 1
    26    9   10 2
    27    9   11 1
    28   11   16 ar
    29   11   12 ar
    30   12   13 ar
    31   12   40 1
    32   13   14 ar
    33   13   41 1
    34   14   15 ar
    35   14   17 1
    36   15   16 ar
    37   15   42 1
    38   16   43 1
    39   17   18 am
    40   17   44 1
    41   18   19 2
    42   18   20 1
    43   20   24 1
    44   20   21 2
    45   21   22 1
    46   21   45 1
    47   22   23 2
    48   22   46 1
    49   23   24 1
    50   23   47 1
    51   48   49 1
@<TRIPOS>MOLECULE
ZINC39654819
   55    57     0     0     0
SMALL
USER_CHARGES

@<TRIPOS>ATOM
      1 C1         -0.8764    1.2392   -0.8702 C.3       1 <0>        -0.1558
      2 C2         -0.8193   -0.2895   -0.8999 C.3       1 <0>        -0.1083
      3 C3          0.5497   -0.7388   -1.4144 C.3       1 <0>        -0.1069
      4 H1          0.7431   -0.2778   -2.3830 H         1 <0>         0.0927
      5 C4          1.6328   -0.3125   -0.4214 C.3       1 <0>        -0.1431
      6 C5          0.5640   -2.2387   -1.5601 C.2       1 <0>         0.5463
      7 O1         -0.1084   -2.9262   -0.8211 O.2       1 <0>        -0.5277
      8 N1          1.3241   -2.8161   -2.5116 N.am      1 <0>        -0.6254
      9 C6          2.2871   -2.1599   -3.4271 C.3       1 <0>         0.1094
     10 C7          3.4753   -3.1438   -3.5144 C.3       1 <0>        -0.1125
     11 H2          4.2496   -2.8683   -2.7985 H         1 <0>         0.1125
     12 C8          2.8772   -4.5143   -3.1553 C.3       1 <0>        -0.0718
     13 C9          1.3905   -4.2521   -2.8743 C.3       1 <0>         0.1059
     14 C10         3.5526   -5.0751   -1.9075 C.3       1 <0>        -0.1341
     15 C11         2.9812   -6.4629   -1.6036 C.3       1 <0>        -0.0109
     16 N2          3.2112   -7.3505   -2.7499 N.4       1 <0>        -0.5045
     17 C12         2.4820   -6.8532   -3.9228 C.3       1 <0>        -0.0074
     18 C13         3.0321   -5.4818   -4.3246 C.3       1 <0>        -0.1476
     19 C14         4.0380   -3.1643   -4.9123 C.2       1 <0>         0.5218
     20 O2          3.3172   -2.9316   -5.8596 O.2       1 <0>        -0.5174
     21 N3          5.3421   -3.4412   -5.1098 N.am      1 <0>        -0.7255
     22 C15         5.8891   -3.4611   -6.4687 C.3       1 <0>         0.2019
     23 C16         7.3578   -3.7939   -6.4142 C.2       1 <0>        -0.0518
     24 C17         7.8872   -5.0292   -6.4712 C.2       1 <0>        -0.1786
     25 C18         9.2904   -4.8778   -6.3869 C.2       1 <0>        -0.2211
     26 C19         9.5345   -3.5590   -6.2834 C.2       1 <0>        -0.0145
     27 O3          8.3606   -2.9070   -6.3063 O.3       1 <0>        -0.1694
     28 H3         -0.0972    1.6191   -0.2094 H         1 <0>         0.0596
     29 H4         -0.7208    1.6281   -1.8765 H         1 <0>         0.0561
     30 H5         -1.8517    1.5593   -0.5037 H         1 <0>         0.0624
     31 H6         -0.9748   -0.6784    0.1064 H         1 <0>         0.0756
     32 H7         -1.5984   -0.6694   -1.5607 H         1 <0>         0.0654
     33 H8          2.5909   -0.7339   -0.7257 H         1 <0>         0.0546
     34 H9          1.7030    0.7751   -0.4051 H         1 <0>         0.0768
     35 H10         1.3762   -0.6750    0.5740 H         1 <0>         0.0665
     36 H11         1.8393   -2.0166   -4.4105 H         1 <0>         0.1010
     37 H12         2.6137   -1.2053   -3.0145 H         1 <0>         0.0952
     38 H13         1.0461   -4.8702   -2.0452 H         1 <0>         0.0891
     39 H14         0.7968   -4.4467   -3.7674 H         1 <0>         0.0840
     40 H15         4.6262   -5.1532   -2.0789 H         1 <0>         0.0959
     41 H16         3.3657   -4.4117   -1.0632 H         1 <0>         0.1180
     42 H17         3.4737   -6.8733   -0.7220 H         1 <0>         0.1399
     43 H18         1.9105   -6.3817   -1.4164 H         1 <0>         0.1344
     44 H19         4.1982   -7.3810   -2.9573 H         1 <0>         0.4275
     45 H20         2.6066   -7.5512   -4.7506 H         1 <0>         0.1396
     46 H21         1.4231   -6.7629   -3.6805 H         1 <0>         0.1336
     47 H22         2.4780   -5.1052   -5.1844 H         1 <0>         0.1269
     48 H23         4.0870   -5.5743   -4.5830 H         1 <0>         0.0965
     49 H24         5.9185   -3.6273   -4.3522 H         1 <0>         0.4041
     50 H25         5.3675   -4.2144   -7.0593 H         1 <0>         0.1028
     51 H26         5.7552   -2.4820   -6.9287 H         1 <0>         0.0919
     52 H27         7.3445   -5.9584   -6.5631 H         1 <0>         0.1487
     53 H28        10.0252   -5.6691   -6.4022 H         1 <0>         0.1540
     54 H29        10.5094   -3.1018   -6.2001 H         1 <0>         0.2094
     55 H30         2.8889   -8.2796   -2.5242 H         1 <0>         0.4345
@<TRIPOS>BOND
     1    1    2 1
     2    1   28 1
     3    1   29 1
     4    1   30 1
     5    2    3 1
     6    2   31 1
     7    2   32 1
     8    3    4 1
     9    3    5 1
    10    3    6 1
    11    5   33 1
    12    5   34 1
    13    5   35 1
    14    6    7 2
    15    6    8 am
    16    8   13 1
    17    8    9 1
    18    9   10 1
    19    9   36 1
    20    9   37 1
    21   10   11 1
    22   10   12 1
    23   10   19 1
    24   12   18 1
    25   12   13 1
    26   12   14 1
    27   13   38 1
    28   13   39 1
    29   14   15 1
    30   14   40 1
    31   14   41 1
    32   15   16 1
    33   15   42 1
    34   15   43 1
    35   16   17 1
    36   16   44 1
    37   16   55 1
    38   17   18 1
    39   17   45 1
    40   17   46 1
    41   18   47 1
    42   18   48 1
    43   19   20 2
    44   19   21 am
    45   21   22 1
    46   21   49 1
    47   22   23 1
    48   22   50 1
    49   22   51 1
    50   23   27 1
    51   23   24 2
    52   24   25 1
    53   24   52 1
    54   25   26 2
    55   25   53 1
    56   26   27 1
    57   26   54 1
@<TRIPOS>MOLECULE
ZINC44871310
   46    48     0     0     0
SMALL
USER_CHARGES

@<TRIPOS>ATOM
      1 C1          0.0582    3.3871    0.6814 C.ar      1 <0>        -0.0865
      2 C2          1.3531    3.8345    0.4870 C.ar      1 <0>        -0.1239
      3 C3          2.4038    2.9409    0.4974 C.ar      1 <0>        -0.0740
      4 C4          2.1582    1.5816    0.7053 C.ar      1 <0>        -0.0607
      5 C5          0.8485    1.1373    0.9014 C.ar      1 <0>        -0.0783
      6 C6         -0.1925    2.0421    0.8880 C.ar      1 <0>        -0.1195
      7 C7          3.2765    0.6200    0.7173 C.2       1 <0>         0.1936
      8 N1          4.5178    0.9217    0.5528 N.2       1 <0>        -0.2780
      9 N2          5.3813   -0.1705    0.6075 N.am      1 <0>        -0.4532
     10 C8          4.5920   -1.3895    0.8456 C.3       1 <0>         0.0771
     11 C9          3.1429   -0.8708    0.9312 C.3       1 <0>        -0.1422
     12 C10         6.7205   -0.1190    0.4655 C.2       1 <0>         0.5477
     13 O1          7.3770   -1.1370    0.5310 O.2       1 <0>        -0.5157
     14 C11         7.4025    1.2033    0.2253 C.3       1 <0>        -0.0255
     15 N3          8.8514    0.9925    0.1062 N.4       1 <0>        -0.3585
     16 C12         9.3872    0.5464    1.3979 C.3       1 <0>        -0.0164
     17 C13        10.8815    0.2476    1.2587 C.3       1 <0>        -0.1445
     18 C14        11.6112    1.5180    0.8129 C.3       1 <0>        -0.1349
     19 C15        10.9944    2.0159   -0.4974 C.3       1 <0>        -0.1343
     20 C16         9.4960    2.2492   -0.2932 C.3       1 <0>         0.0079
     21 H1          9.3480    2.9967    0.4863 H         1 <0>         0.1598
     22 C17         8.8846    2.7398   -1.5803 C.2       1 <0>         0.5078
     23 O2          8.4219    1.9468   -2.3727 O.2       1 <0>        -0.5200
     24 N4          8.8519    4.0597   -1.8508 N.am      1 <0>        -0.8230
     25 H2         -0.7602    4.0918    0.6764 H         1 <0>         0.1325
     26 H3          1.5415    4.8857    0.3263 H         1 <0>         0.1322
     27 H4          3.4139    3.2913    0.3448 H         1 <0>         0.1296
     28 H5          0.6514    0.0877    1.0624 H         1 <0>         0.1327
     29 H6         -1.2056    1.6999    1.0390 H         1 <0>         0.1354
     30 H7          4.7052   -2.0879    0.0164 H         1 <0>         0.1001
     31 H8          4.8839   -1.8580    1.7855 H         1 <0>         0.0997
     32 H9          2.7172   -1.0796    1.9127 H         1 <0>         0.1186
     33 H10         2.5324   -1.3165    0.1459 H         1 <0>         0.1181
     34 H11         7.0228    1.6459   -0.6956 H         1 <0>         0.1649
     35 H12         7.2003    1.8734    1.0609 H         1 <0>         0.1625
     36 H13         9.2416    1.3301    2.1413 H         1 <0>         0.1292
     37 H14         8.8647   -0.3560    1.7154 H         1 <0>         0.1480
     38 H15        11.2778   -0.0817    2.2192 H         1 <0>         0.1178
     39 H16        11.0282   -0.5363    0.5156 H         1 <0>         0.0923
     40 H17        11.5076    2.2859    1.5795 H         1 <0>         0.0865
     41 H18        12.6671    1.2964    0.6576 H         1 <0>         0.1029
     42 H19        11.4715    2.9506   -0.7922 H         1 <0>         0.1195
     43 H20        11.1435    1.2688   -1.2769 H         1 <0>         0.0989
     44 H21         9.2220    4.6939   -1.2170 H         1 <0>         0.4133
     45 H22         8.4584    4.3754   -2.6792 H         1 <0>         0.4243
     46 H23         9.0313    0.2867   -0.5921 H         1 <0>         0.4360
@<TRIPOS>BOND
     1    1    6 ar
     2    1    2 ar
     3    1   25 1
     4    2    3 ar
     5    2   26 1
     6    3    4 ar
     7    3   27 1
     8    4    5 ar
     9    4    7 1
    10    5    6 ar
    11    5   28 1
    12    6   29 1
    13    7   11 1
    14    7    8 2
    15    8    9 1
    16    9   10 1
    17    9   12 am
    18   10   11 1
    19   10   30 1
    20   10   31 1
    21   11   32 1
    22   11   33 1
    23   12   13 2
    24   12   14 1
    25   14   15 1
    26   14   34 1
    27   14   35 1
    28   15   20 1
    29   15   16 1
    30   15   46 1
    31   16   17 1
    32   16   36 1
    33   16   37 1
    34   17   18 1
    35   17   38 1
    36   17   39 1
    37   18   19 1
    38   18   40 1
    39   18   41 1
    40   19   20 1
    41   19   42 1
    42   19   43 1
    43   20   21 1
    44   20   22 1
    45   22   23 2
    46   22   24 am
    47   24   44 1
    48   24   45 1
@<TRIPOS>MOLECULE
ZINC60567605
   51    54     0     0     0
SMALL
USER_CHARGES

@<TRIPOS>ATOM
      1 C1         -0.0167    1.3828    0.0096 C.ar      1 <0>        -0.1789
      2 C2          1.1695    2.0903    0.0021 C.ar      1 <0>        -0.1108
      3 C3          2.3808    1.4126   -0.0129 C.ar      1 <0>         0.1332
      4 C4          2.3987    0.0239   -0.0203 C.ar      1 <0>        -0.0789
      5 C5          1.2126   -0.6821   -0.0133 C.ar      1 <0>        -0.1053
      6 C6          0.0021   -0.0041    0.0020 C.ar      1 <0>         0.1025
      7 O1         -1.1663   -0.6996    0.0097 O.3       1 <0>        -0.2889
      8 C7         -2.3749    0.0626    0.0256 C.3       1 <0>         0.0416
      9 C8         -3.5577   -0.8712    0.0322 C.2       1 <0>         0.5229
     10 O2         -3.3828   -2.0713    0.0241 O.2       1 <0>        -0.4880
     11 N1         -4.8098   -0.3728    0.0472 N.am      1 <0>        -0.7365
     12 C9         -5.9596   -1.2806    0.0535 C.3       1 <0>         0.1325
     13 C10        -6.3769   -1.6182    1.5080 C.3       1 <0>        -0.1595
     14 C11        -7.8048   -1.0289    1.6606 C.3       1 <0>        -0.0047
     15 N2         -7.8471    0.0342    0.6441 N.4       1 <0>        -0.3948
     16 C12        -7.1924   -0.5894   -0.5371 C.3       1 <0>         0.0259
     17 C13        -6.8723    0.5219   -1.5257 C.3       1 <0>        -0.1379
     18 C14        -8.2077    1.1311   -1.9825 C.3       1 <0>        -0.1386
     19 C15        -9.0256    1.5959   -0.7780 C.3       1 <0>        -0.1490
     20 C16        -9.1817    0.4610    0.2455 C.3       1 <0>        -0.0025
     21 C17         3.7151   -0.7087   -0.0354 C.3       1 <0>        -0.0810
     22 C18         4.7361    0.0909   -0.8454 C.3       1 <0>        -0.1395
     23 C19         4.7294    1.5290   -0.4019 C.2       1 <0>         0.5195
     24 O3          5.7670    2.1570   -0.3887 O.2       1 <0>        -0.5197
     25 N3          3.5856    2.1263   -0.0202 N.am      1 <0>        -0.6647
     26 H1         -0.9593    1.9097    0.0260 H         1 <0>         0.1311
     27 H2          1.1545    3.1701    0.0076 H         1 <0>         0.1349
     28 H3          1.2269   -1.7620   -0.0193 H         1 <0>         0.1425
     29 H4         -2.3994    0.6863    0.9193 H         1 <0>         0.0968
     30 H5         -2.4168    0.6958   -0.8606 H         1 <0>         0.0978
     31 H6         -4.9496    0.5871    0.0537 H         1 <0>         0.4021
     32 H7         -5.7296   -2.1904   -0.5009 H         1 <0>         0.1412
     33 H8         -6.3946   -2.6980    1.6564 H         1 <0>         0.1228
     34 H9         -5.6951   -1.1484    2.2168 H         1 <0>         0.1060
     35 H10        -8.5581   -1.7889    1.4529 H         1 <0>         0.1373
     36 H11        -7.9435   -0.6120    2.6582 H         1 <0>         0.1376
     37 H12        -7.8556   -1.3261   -0.9904 H         1 <0>         0.1567
     38 H13        -6.2637    1.2851   -1.0408 H         1 <0>         0.0866
     39 H14        -6.3395    0.1121   -2.3838 H         1 <0>         0.1181
     40 H15        -8.0103    1.9829   -2.6333 H         1 <0>         0.0975
     41 H16        -8.7747    0.3815   -2.5344 H         1 <0>         0.0850
     42 H17        -8.5210    2.4385   -0.3053 H         1 <0>         0.0871
     43 H18       -10.0124    1.9130   -1.1153 H         1 <0>         0.1144
     44 H19        -9.7163   -0.3738   -0.2077 H         1 <0>         0.1312
     45 H20        -9.7292    0.8219    1.1162 H         1 <0>         0.1318
     46 H21         4.0757   -0.8287    0.9862 H         1 <0>         0.0905
     47 H22         3.5793   -1.6901   -0.4899 H         1 <0>         0.0979
     48 H23         5.7296   -0.3305   -0.6925 H         1 <0>         0.1144
     49 H24         4.4806    0.0373   -1.9037 H         1 <0>         0.1063
     50 H25         3.5957    3.0574    0.2513 H         1 <0>         0.4121
     51 H26        -7.3118    0.8298    0.9581 H         1 <0>         0.4212
@<TRIPOS>BOND
     1    1    6 ar
     2    1    2 ar
     3    1   26 1
     4    2    3 ar
     5    2   27 1
     6    3   25 1
     7    3    4 ar
     8    4    5 ar
     9    4   21 1
    10    5    6 ar
    11    5   28 1
    12    6    7 1
    13    7    8 1
    14    8    9 1
    15    8   29 1
    16    8   30 1
    17    9   10 2
    18    9   11 am
    19   11   12 1
    20   11   31 1
    21   12   16 1
    22   12   13 1
    23   12   32 1
    24   13   14 1
    25   13   33 1
    26   13   34 1
    27   14   15 1
    28   14   35 1
    29   14   36 1
    30   15   20 1
    31   15   16 1
    32   15   51 1
    33   16   17 1
    34   16   37 1
    35   17   18 1
    36   17   38 1
    37   17   39 1
    38   18   19 1
    39   18   40 1
    40   18   41 1
    41   19   20 1
    42   19   42 1
    43   19   43 1
    44   20   44 1
    45   20   45 1
    46   21   22 1
    47   21   46 1
    48   21   47 1
    49   22   23 1
    50   22   48 1
    51   22   49 1
    52   23   24 2
    53   23   25 am
    54   25   50 1
@<TRIPOS>MOLECULE
ZINC64626322
   52    55     0     0     0
SMALL
USER_CHARGES

@<TRIPOS>ATOM
      1 C1         -4.5488    4.4431    1.5189 C.3       1 <0>        -0.1021
      2 C2         -4.0822    4.3213    0.0912 C.2       1 <0>         0.0670
      3 N1         -4.2655    3.2480   -0.7384 N.pl3     1 <0>        -0.5115
      4 C3         -3.6938    3.5562   -1.9224 C.cat     1 <0>         0.3256
      5 H1         -4.7209    2.4207   -0.5171 H         1 <0>         0.4620
      6 N2         -3.1814    4.7536   -1.8406 N.pl3     1 <0>        -0.4537
      7 C4         -3.4101    5.2498   -0.6157 C.2       1 <0>        -0.0045
      8 C5         -3.6537    2.6647   -3.1368 C.3       1 <0>         0.0961
      9 N3         -3.5758    3.4913   -4.3487 N.3       1 <0>        -0.5472
     10 C6         -3.0621    2.7141   -5.4838 C.3       1 <0>         0.0597
     11 C7         -2.8573    3.6387   -6.6859 C.3       1 <0>        -0.1079
     12 C8         -4.1920    4.2930   -7.0536 C.3       1 <0>         0.0365
     13 C9         -4.7289    5.0560   -5.8395 C.3       1 <0>        -0.1448
     14 C10        -4.8794    4.0903   -4.6619 C.3       1 <0>         0.0511
     15 N4         -3.9901    5.2262   -8.1700 N.3       1 <0>        -0.2787
     16 C11        -5.2440    5.9334   -8.5021 C.3       1 <0>         0.0264
     17 C12        -4.9099    7.3955   -8.3033 C.2       1 <0>         0.0421
     18 N5         -3.6916    7.4622   -7.9302 N.2       1 <0>        -0.2170
     19 N6         -3.0974    6.2060   -7.8344 N.pl3     1 <0>        -0.5137
     20 C13        -5.8445    8.5597   -8.5088 C.3       1 <0>        -0.0090
     21 C14        -6.1825    8.7080  -10.0066 C.3       1 <0>        -0.1153
     22 C15        -6.2500   10.2391  -10.2310 C.3       1 <0>        -0.1261
     23 C16        -5.1025   10.7668   -9.3345 C.3       1 <0>        -0.1254
     24 C17        -5.1578    9.8688   -8.0814 C.3       1 <0>        -0.1219
     25 H2         -3.7731    4.0700    2.1877 H         1 <0>         0.1038
     26 H3         -4.7524    5.4894    1.7467 H         1 <0>         0.1096
     27 H4         -5.4582    3.8579    1.6552 H         1 <0>         0.0921
     28 H5         -3.1061    6.2225   -0.2581 H         1 <0>         0.2246
     29 H6         -2.7794    2.0160   -3.0827 H         1 <0>         0.1382
     30 H7         -4.5568    2.0553   -3.1702 H         1 <0>         0.0991
     31 H8         -2.1107    2.2576   -5.2105 H         1 <0>         0.0926
     32 H9         -3.7778    1.9340   -5.7433 H         1 <0>         0.0549
     33 H10        -2.1313    4.4109   -6.4316 H         1 <0>         0.0729
     34 H11        -2.4908    3.0587   -7.5329 H         1 <0>         0.0905
     35 H12        -4.9067    3.5235   -7.3455 H         1 <0>         0.0942
     36 H13        -4.0324    5.8505   -5.5718 H         1 <0>         0.0781
     37 H14        -5.6997    5.4886   -6.0818 H         1 <0>         0.0761
     38 H15        -5.5866    3.3038   -4.9253 H         1 <0>         0.0542
     39 H16        -5.2481    4.6334   -3.7917 H         1 <0>         0.0696
     40 H17        -5.5259    5.7440   -9.5379 H         1 <0>         0.1131
     41 H18        -6.0437    5.6297   -7.8266 H         1 <0>         0.0808
     42 H19        -2.1786    6.0482   -7.5664 H         1 <0>         0.4468
     43 H20        -6.7575    8.4115   -7.9321 H         1 <0>         0.0904
     44 H21        -5.3973    8.2668  -10.6204 H         1 <0>         0.0707
     45 H22        -7.1452    8.2472  -10.2279 H         1 <0>         0.0723
     46 H23        -6.0671   10.4846  -11.2771 H         1 <0>         0.0706
     47 H24        -7.2106   10.6357   -9.9023 H         1 <0>         0.0702
     48 H25        -4.1428   10.6581   -9.8398 H         1 <0>         0.0665
     49 H26        -5.2770   11.8086   -9.0652 H         1 <0>         0.0674
     50 H27        -5.7380   10.3563   -7.2980 H         1 <0>         0.0654
     51 H28        -4.1485    9.6620   -7.7254 H         1 <0>         0.0798
     52 H29        -2.7123    5.2136   -2.5543 H         1 <0>         0.4679
@<TRIPOS>BOND
     1    1   25 1
     2    1   26 1
     3    1   27 1
     4    1    2 1
     5    2    3 1
     6    2    7 2
     7    3    4 1
     8    3    5 1
     9    4    8 1
    10    4    6 2
    11    6    7 1
    12    6   52 1
    13    7   28 1
    14    8    9 1
    15    8   29 1
    16    8   30 1
    17    9   14 1
    18    9   10 1
    19   10   11 1
    20   10   31 1
    21   10   32 1
    22   11   12 1
    23   11   33 1
    24   11   34 1
    25   12   13 1
    26   12   15 1
    27   12   35 1
    28   13   14 1
    29   13   36 1
    30   13   37 1
    31   14   38 1
    32   14   39 1
    33   15   19 1
    34   15   16 1
    35   16   17 1
    36   16   40 1
    37   16   41 1
    38   17   18 2
    39   17   20 1
    40   18   19 1
    41   19   42 1
    42   20   24 1
    43   20   21 1
    44   20   43 1
    45   21   22 1
    46   21   44 1
    47   21   45 1
    48   22   23 1
    49   22   46 1
    50   22   47 1
    51   23   24 1
    52   23   48 1
    53   23   49 1
    54   24   50 1
    55   24   51 1
@<TRIPOS>MOLECULE
ZINC27121903
   55    56     0     0     0
SMALL
USER_CHARGES
(2S)-2-[4-(3-cyclopentylpropanoyl)piperazin-1-yl]-N-(methylcarbamoyl)propanamide
@<TRIPOS>ATOM
      1 C1         -2.6057    2.6997    9.3929 C.3       1 <0>        -0.1829
      2 C2         -1.2007    2.3113    9.8577 C.3       1 <0>         0.0150
      3 H1         -1.0208    2.6462   10.8899 H         1 <0>         0.1638
      4 C3         -1.0391    0.8154    9.7727 C.2       1 <0>         0.5160
      5 O1         -0.5888    0.3105    8.7667 O.2       1 <0>        -0.4524
      6 N1         -1.3953    0.0388   10.8151 N.am      1 <0>        -0.6906
      7 C4         -1.2508   -1.2990   10.7391 C.2       1 <0>         0.6915
      8 O2         -0.7993   -1.8052    9.7306 O.2       1 <0>        -0.5240
      9 N2         -1.6070   -2.0756   11.7815 N.am      1 <0>        -0.7419
     10 C5         -1.4500   -3.5298   11.6988 C.3       1 <0>         0.0985
     11 N3         -0.2031    2.9612    8.9972 N.4       1 <0>        -0.3828
     12 C6          1.1530    2.4993    9.3219 C.3       1 <0>        -0.0318
     13 C7          2.1735    3.3277    8.5340 C.3       1 <0>         0.0922
     14 N4          1.8213    3.2688    7.1072 N.am      1 <0>        -0.6352
     15 C8          0.4404    3.5919    6.7174 C.3       1 <0>         0.0882
     16 C9         -0.5133    2.7474    7.5774 C.3       1 <0>        -0.0451
     17 C10         2.7410    2.9332    6.1810 C.2       1 <0>         0.5230
     18 O3          3.8765    2.6747    6.5198 O.2       1 <0>        -0.5087
     19 C11         2.3585    2.8790    4.7244 C.3       1 <0>        -0.1427
     20 C12         3.5770    2.4758    3.8917 C.3       1 <0>        -0.1060
     21 C13         3.1887    2.4208    2.4128 C.3       1 <0>        -0.0970
     22 C14         4.3655    1.8960    1.5647 C.3       1 <0>        -0.1221
     23 C15         4.3511    2.6943    0.2493 C.3       1 <0>        -0.1286
     24 C16         3.1654    3.6766    0.3429 C.3       1 <0>        -0.1218
     25 C17         2.9330    3.8476    1.8647 C.3       1 <0>        -0.1155
     26 H2         -2.7236    3.7916    9.4549 H         1 <0>         0.1042
     27 H3         -3.3527    2.2130   10.0372 H         1 <0>         0.1135
     28 H4         -2.7509    2.3737    8.3524 H         1 <0>         0.0945
     29 H5         -1.8039    0.4969   11.7279 H         1 <0>         0.4430
     30 H6         -2.0156   -1.6175   12.6943 H         1 <0>         0.4256
     31 H7         -1.7914   -3.9894   12.6381 H         1 <0>         0.0887
     32 H8         -0.3905   -3.7754   11.5342 H         1 <0>         0.0651
     33 H9         -2.0503   -3.9164   10.8620 H         1 <0>         0.0654
     34 H10         1.3337    2.6216   10.4000 H         1 <0>         0.1422
     35 H11         1.2534    1.4378    9.0514 H         1 <0>         0.1401
     36 H12         2.1481    4.3702    8.8840 H         1 <0>         0.0964
     37 H13         3.1805    2.9132    8.6893 H         1 <0>         0.1365
     38 H14         0.2528    4.6626    6.8862 H         1 <0>         0.0989
     39 H15         0.2957    3.3577    5.6524 H         1 <0>         0.1325
     40 H16        -0.3871    1.6829    7.3308 H         1 <0>         0.1566
     41 H17        -1.5526    3.0488    7.3797 H         1 <0>         0.1473
     42 H18         1.5568    2.1392    4.5831 H         1 <0>         0.0985
     43 H19         2.0048    3.8691    4.4011 H         1 <0>         0.1013
     44 H20         4.3787    3.2156    4.0330 H         1 <0>         0.0729
     45 H21         3.9307    1.4856    4.2150 H         1 <0>         0.0724
     46 H22         2.3018    1.7726    2.3568 H         1 <0>         0.0744
     47 H23         5.3085    2.0539    2.1086 H         1 <0>         0.0664
     48 H24         4.2286    0.8216    1.3725 H         1 <0>         0.0637
     49 H25         5.3018    3.2365    0.1390 H         1 <0>         0.0642
     50 H26         4.2225    2.0038   -0.5973 H         1 <0>         0.0647
     51 H27         3.4364    4.6258   -0.1425 H         1 <0>         0.0665
     52 H28         2.2896    3.2434   -0.1623 H         1 <0>         0.0669
     53 H29         1.9043    4.1539    2.1054 H         1 <0>         0.0619
     54 H30         3.6423    4.5503    2.3263 H         1 <0>         0.0688
     55 H31        -0.2425    4.0437    9.1888 H         1 <0>         0.4474
@<TRIPOS>BOND
     1    1    2 1
     2    1   26 1
     3    1   27 1
     4    1   28 1
     5    2    3 1
     6    2    4 1
     7    2   11 1
     8    4    5 2
     9    4    6 am
    10    6    7 am
    11    6   29 1
    12    7    8 2
    13    7    9 am
    14    9   10 1
    15    9   30 1
    16   10   31 1
    17   10   32 1
    18   10   33 1
    19   11   16 1
    20   11   12 1
    21   11   55 1
    22   12   13 1
    23   12   34 1
    24   12   35 1
    25   13   14 1
    26   13   36 1
    27   13   37 1
    28   14   15 1
    29   14   17 am
    30   15   16 1
    31   15   38 1
    32   15   39 1
    33   16   40 1
    34   16   41 1
    35   17   18 2
    36   17   19 1
    37   19   20 1
    38   19   42 1
    39   19   43 1
    40   20   21 1
    41   20   44 1
    42   20   45 1
    43   21   25 1
    44   21   22 1
    45   21   46 1
    46   22   23 1
    47   22   47 1
    48   22   48 1
    49   23   24 1
    50   23   49 1
    51   23   50 1
    52   24   25 1
    53   24   51 1
    54   24   52 1
    55   25   53 1
    56   25   54 1
@<TRIPOS>MOLECULE
ZINC44509074
   41    42     0     0     0
SMALL
USER_CHARGES

@<TRIPOS>ATOM
      1 C1          2.4483   -1.7333    1.5204 C.3       1 <0>        -0.1623
      2 C2          1.1819   -1.5523    0.7239 C.ar      1 <0>         0.0304
      3 C3          0.6644   -2.6094   -0.0015 C.ar      1 <0>        -0.0986
      4 C4         -0.4971   -2.4433   -0.7320 C.ar      1 <0>        -0.0493
      5 C5         -1.1417   -1.2202   -0.7370 C.ar      1 <0>        -0.0809
      6 C6         -0.6248   -0.1637   -0.0111 C.ar      1 <0>         0.0523
      7 C7          0.5347   -0.3310    0.7231 C.ar      1 <0>        -0.6518
      8 S1          1.1902    1.0141    1.6534 S.o2      1 <0>         2.6904
      9 O1          2.4250    0.5682    2.1973 O.2       1 <0>        -0.9362
     10 O2          1.0937    2.1654    0.8261 O.2       1 <0>        -0.9362
     11 N1          0.1719    1.2654    2.9349 N.pl3     1 <0>        -1.1011
     12 C8          0.0253    0.2359    3.9669 C.3       1 <0>         0.1195
     13 C9         -0.6540    0.8404    5.1974 C.3       1 <0>        -0.1076
     14 C10         0.2619    1.8977    5.8204 C.3       1 <0>        -0.1497
     15 C11        -0.3883    2.4410    7.0946 C.3       1 <0>        -0.0078
     16 N2         -0.5931    1.3450    8.0493 N.4       1 <0>        -0.5063
     17 C12        -1.5273    0.3625    7.4867 C.3       1 <0>        -0.0054
     18 C13        -0.9209   -0.2607    6.2277 C.3       1 <0>        -0.1447
     19 N3         -1.3147    1.1459   -0.0168 N.pl3     1 <0>         0.0218
     20 O3         -1.8211    1.5579   -1.0344 O.2       1 <0>        -0.1063
     21 O4         -1.3717    1.8035    0.9961 O.3       1 <0>        -0.1610
     22 H1          2.1993   -1.8692    2.5729 H         1 <0>         0.0905
     23 H2          2.9835   -2.6108    1.1575 H         1 <0>         0.0836
     24 H3          3.0781   -0.8510    1.4071 H         1 <0>         0.1292
     25 H4          1.1680   -3.5648    0.0024 H         1 <0>         0.1562
     26 H5         -0.9009   -3.2688   -1.2993 H         1 <0>         0.1606
     27 H6         -2.0489   -1.0902   -1.3084 H         1 <0>         0.1599
     28 H7         -0.3274    2.0943    3.0023 H         1 <0>         0.4294
     29 H8         -0.5834   -0.5816    3.5806 H         1 <0>         0.0716
     30 H9          1.0089   -0.1431    4.2443 H         1 <0>         0.0883
     31 H10        -1.5972    1.3010    4.9036 H         1 <0>         0.1029
     32 H11         1.2235    1.4470    6.0662 H         1 <0>         0.0950
     33 H12         0.4116    2.7126    5.1122 H         1 <0>         0.1169
     34 H13         0.2612    3.1942    7.5407 H         1 <0>         0.1358
     35 H14        -1.3496    2.8916    6.8477 H         1 <0>         0.1325
     36 H15         0.2905    0.8967    8.2398 H         1 <0>         0.4284
     37 H16        -1.7187   -0.4187    8.2223 H         1 <0>         0.1353
     38 H17        -2.4643    0.8575    7.2315 H         1 <0>         0.1320
     39 H18        -1.6168   -0.9886    5.8105 H         1 <0>         0.1155
     40 H19         0.0161   -0.7562    6.4818 H         1 <0>         0.0942
     41 H20        -0.9724    1.7149    8.9081 H         1 <0>         0.4330
@<TRIPOS>BOND
     1    1    2 1
     2    1   22 1
     3    1   23 1
     4    1   24 1
     5    2    7 ar
     6    2    3 ar
     7    3    4 ar
     8    3   25 1
     9    4    5 ar
    10    4   26 1
    11    5    6 ar
    12    5   27 1
    13    6    7 ar
    14    6   19 1
    15    7    8 1
    16    8    9 2
    17    8   10 2
    18    8   11 1
    19   11   12 1
    20   11   28 1
    21   12   13 1
    22   12   29 1
    23   12   30 1
    24   13   18 1
    25   13   14 1
    26   13   31 1
    27   14   15 1
    28   14   32 1
    29   14   33 1
    30   15   16 1
    31   15   34 1
    32   15   35 1
    33   16   17 1
    34   16   36 1
    35   16   41 1
    36   17   18 1
    37   17   37 1
    38   17   38 1
    39   18   39 1
    40   18   40 1
    41   19   20 2
    42   19   21 1
@<TRIPOS>MOLECULE
ZINC51579757
   49    51     0     0     0
SMALL
USER_CHARGES

@<TRIPOS>ATOM
      1 C1          0.1386    1.4600    0.3346 C.3       1 <0>        -0.0724
      2 N1          0.0073    0.0174    0.0909 N.4       1 <0>        -0.3688
      3 C2          0.7001   -0.3337   -1.1560 C.3       1 <0>        -0.0725
      4 C3          2.1707   -0.0365   -1.0144 C.2       1 <0>         0.5144
      5 O1          2.5993    0.4224    0.0227 O.2       1 <0>        -0.4481
      6 N2          3.0095   -0.2808   -2.0407 N.am      1 <0>        -0.6759
      7 C4          4.3247   -0.0150   -1.9140 C.2       1 <0>         0.6949
      8 O2          4.7543    0.4450   -0.8743 O.2       1 <0>        -0.5107
      9 N3          5.1634   -0.2593   -2.9403 N.am      1 <0>        -0.7147
     10 C5          6.5931    0.0296   -2.8026 C.3       1 <0>         0.1562
     11 H1          6.9095   -0.1590   -1.7768 H         1 <0>         0.1207
     12 C6          6.8635    1.4987   -3.1678 C.3       1 <0>        -0.1418
     13 C7          8.3847    1.7289   -3.3369 C.3       1 <0>        -0.5753
     14 S1          8.9876    0.0733   -3.8644 S.o2      1 <0>         2.3814
     15 O3          9.8805   -0.4288   -2.8797 O.2       1 <0>        -0.9210
     16 O4          9.4095    0.1451   -5.2194 O.2       1 <0>        -0.9230
     17 C8          7.4068   -0.8690   -3.7771 C.3       1 <0>        -0.6016
     18 C9         -1.4148   -0.3324   -0.0239 C.3       1 <0>         0.0957
     19 C10        -1.5624   -1.8541   -0.0849 C.3       1 <0>        -0.1746
     20 C11        -0.2852   -2.6918    0.0032 C.3       1 <0>        -0.1977
     21 C12        -1.0275   -2.5665   -1.3288 C.3       1 <0>        -0.1793
     22 C13        -2.1720    0.2051    1.1921 C.3       1 <0>        -0.2010
     23 C14        -3.5136    0.8962    0.9400 C.3       1 <0>        -0.1397
     24 C15        -2.2893    1.7237    1.3366 C.3       1 <0>        -0.1879
     25 H2          1.1861    1.7490    0.2496 H         1 <0>         0.1380
     26 H3         -0.4503    2.0079   -0.4011 H         1 <0>         0.1221
     27 H4         -0.2228    1.6937    1.3360 H         1 <0>         0.1408
     28 H5          0.5621   -1.3951   -1.3619 H         1 <0>         0.1874
     29 H6          0.2885    0.2524   -1.9778 H         1 <0>         0.1683
     30 H7          2.6666   -0.6479   -2.8705 H         1 <0>         0.4201
     31 H8          4.8205   -0.6264   -3.7701 H         1 <0>         0.4087
     32 H9          6.3551    1.7389   -4.1015 H         1 <0>         0.0921
     33 H10         6.4858    2.1441   -2.3748 H         1 <0>         0.1030
     34 H11         8.5793    2.4747   -4.1076 H         1 <0>         0.1492
     35 H12         8.8388    2.0220   -2.3904 H         1 <0>         0.1461
     36 H13         7.5635   -1.8632   -3.3587 H         1 <0>         0.1515
     37 H14         6.9273   -0.9259   -4.7543 H         1 <0>         0.1481
     38 H15        -1.8254    0.1091   -0.9320 H         1 <0>         0.1429
     39 H16        -2.4626   -2.2580    0.3784 H         1 <0>         0.1521
     40 H17         0.6602   -2.1589    0.1047 H         1 <0>         0.0905
     41 H18        -0.3449   -3.6472    0.5247 H         1 <0>         0.1284
     42 H19        -1.5755   -3.4393   -1.6836 H         1 <0>         0.1263
     43 H20        -0.5704   -1.9511   -2.1037 H         1 <0>         0.1094
     44 H21        -2.0712   -0.3811    2.1055 H         1 <0>         0.1343
     45 H22        -3.8567    0.9679   -0.0920 H         1 <0>         0.1083
     46 H23        -4.2958    0.7646    1.6877 H         1 <0>         0.1155
     47 H24        -2.2661    2.1366    2.3451 H         1 <0>         0.1181
     48 H25        -1.8270    2.3399    0.5654 H         1 <0>         0.1103
     49 H26         0.4181   -0.4922    0.8588 H         1 <0>         0.4311
@<TRIPOS>BOND
     1    1    2 1
     2    1   25 1
     3    1   26 1
     4    1   27 1
     5    2    3 1
     6    2   18 1
     7    2   49 1
     8    3    4 1
     9    3   28 1
    10    3   29 1
    11    4    5 2
    12    4    6 am
    13    6    7 am
    14    6   30 1
    15    7    8 2
    16    7    9 am
    17    9   10 1
    18    9   31 1
    19   10   11 1
    20   10   17 1
    21   10   12 1
    22   12   13 1
    23   12   32 1
    24   12   33 1
    25   13   14 1
    26   13   34 1
    27   13   35 1
    28   14   15 2
    29   14   16 2
    30   14   17 1
    31   17   36 1
    32   17   37 1
    33   18   19 1
    34   18   22 1
    35   18   38 1
    36   19   21 1
    37   19   20 1
    38   19   39 1
    39   20   21 1
    40   20   40 1
    41   20   41 1
    42   21   42 1
    43   21   43 1
    44   22   24 1
    45   22   23 1
    46   22   44 1
    47   23   24 1
    48   23   45 1
    49   23   46 1
    50   24   47 1
    51   24   48 1
@<TRIPOS>MOLECULE
ZINC64156052
   39    41     0     0     0
SMALL
USER_CHARGES

@<TRIPOS>ATOM
      1 C1         -0.0184    1.5028    0.0103 C.3       1 <0>        -0.0937
      2 C2          0.0021   -0.0041    0.0020 C.2       1 <0>         0.1784
      3 C3          0.0081   -0.8299   -1.1510 C.2       1 <0>        -0.3871
      4 C4          0.0280   -2.1505   -0.7101 C.2       1 <0>         0.4166
      5 O1          0.0337   -2.1226    0.6306 O.3       1 <0>        -0.0958
      6 N1          0.0229   -0.7719    1.0497 N.2       1 <0>        -0.3051
      7 N2          0.0396   -3.2705   -1.4995 N.pl3     1 <0>        -0.7954
      8 C5         -0.0048   -0.3782   -2.5447 C.2       1 <0>         0.5627
      9 O2          1.0430   -0.1761   -3.1282 O.2       1 <0>        -0.4818
     10 O3         -1.1785   -0.1865   -3.1806 O.3       1 <0>        -0.3213
     11 C6         -1.1163    0.2545   -4.5384 C.3       1 <0>         0.0420
     12 H1         -0.2054   -0.1242   -5.0020 H         1 <0>         0.1174
     13 C7         -1.1110    1.7840   -4.5781 C.3       1 <0>        -0.1746
     14 C8         -2.3153   -0.2634   -5.2902 C.2       1 <0>         0.3898
     15 O4         -3.3053   -0.6189   -4.6836 O.2       1 <0>        -0.3553
     16 C9         -2.2875   -0.3352   -6.6991 C.2       1 <0>        -0.0493
     17 C10        -3.2977   -0.7773   -7.5344 C.ar      1 <0>        -0.0616
     18 C11        -4.6010   -1.2711   -7.2905 C.ar      1 <0>        -0.0593
     19 C12        -5.3936   -1.6404   -8.3214 C.ar      1 <0>        -0.1083
     20 C13        -4.9776   -1.5564   -9.6597 C.ar      1 <0>         0.0321
     21 C14        -3.7532   -1.0995  -10.0003 C.ar      1 <0>        -0.1835
     22 C15        -2.8266   -0.6757   -8.9375 C.ar      1 <0>         0.3182
     23 N3         -1.6127   -0.2053   -8.9786 N.pl3     1 <0>        -0.5426
     24 C16        -1.1491    0.0614   -7.6134 C.3       1 <0>         0.0637
     25 H2          1.0042    1.8801    0.0026 H         1 <0>         0.0988
     26 H3         -0.5455    1.8639   -0.8728 H         1 <0>         0.0841
     27 H4         -0.5286    1.8543    0.9071 H         1 <0>         0.0947
     28 H5          0.0341   -3.1830   -2.4655 H         1 <0>         0.4261
     29 H6          0.0534   -4.1507   -1.0922 H         1 <0>         0.4241
     30 H7         -1.0635    2.1204   -5.6138 H         1 <0>         0.0786
     31 H8         -2.0219    2.1626   -4.1145 H         1 <0>         0.0852
     32 H9         -0.2438    2.1586   -4.0343 H         1 <0>         0.0933
     33 H10        -4.9638   -1.3537   -6.2766 H         1 <0>         0.1687
     34 H11        -6.3840   -2.0144   -8.1074 H         1 <0>         0.1623
     35 H12        -5.6567   -1.8668  -10.4400 H         1 <0>         0.1700
     36 H13        -3.4579   -1.0458  -11.0378 H         1 <0>         0.1719
     37 H14        -0.9223    1.1207   -7.4922 H         1 <0>         0.1874
     38 H15        -0.2661   -0.5392   -7.3952 H         1 <0>         0.1865
     39 H16        -1.0976   -0.0518   -9.7861 H         1 <0>         0.4620
@<TRIPOS>BOND
     1    1    2 1
     2    1   25 1
     3    1   26 1
     4    1   27 1
     5    2    6 2
     6    2    3 1
     7    3    4 2
     8    3    8 1
     9    4    5 1
    10    4    7 1
    11    5    6 1
    12    7   28 1
    13    7   29 1
    14    8    9 2
    15    8   10 1
    16   10   11 1
    17   11   12 1
    18   11   13 1
    19   11   14 1
    20   13   30 1
    21   13   31 1
    22   13   32 1
    23   14   15 2
    24   14   16 1
    25   16   24 1
    26   16   17 2
    27   17   22 ar
    28   17   18 ar
    29   18   19 ar
    30   18   33 1
    31   19   20 ar
    32   19   34 1
    33   20   21 ar
    34   20   35 1
    35   21   22 ar
    36   21   36 1
    37   22   23 2
    38   23   24 1
    39   23   39 1
    40   24   37 1
    41   24   38 1
@<TRIPOS>MOLECULE
ZINC66187978
   50    51     0     0     0
SMALL
USER_CHARGES

@<TRIPOS>ATOM
      1 C1         -0.0184    1.5028    0.0103 C.3       1 <0>        -0.0769
      2 C2          0.0021   -0.0041    0.0020 C.2       1 <0>         0.2525
      3 N1          0.0076   -0.7759   -1.0906 N.2       1 <0>        -0.5161
      4 C3          0.0262   -2.0345   -0.7496 C.2       1 <0>         0.2640
      5 O1          0.0333   -2.1066    0.5874 O.3       1 <0>        -0.0972
      6 N2          0.0229   -0.7667    1.0572 N.2       1 <0>        -0.3243
      7 C4          0.0378   -3.2062   -1.6973 C.3       1 <0>         0.2283
      8 N3          1.4226   -3.5671   -2.0107 N.am      1 <0>        -0.7366
      9 C5          1.6791   -4.5940   -2.8451 C.2       1 <0>         0.7167
     10 O2          0.7611   -5.2208   -3.3377 O.2       1 <0>        -0.5606
     11 N4          2.9531   -4.9260   -3.1334 N.am      1 <0>        -0.7606
     12 C6          3.2318   -6.0422   -4.0404 C.3       1 <0>         0.1221
     13 C7          4.7449   -6.2066   -4.1968 C.3       1 <0>         0.0458
     14 C8          5.0360   -7.3723   -5.1440 C.3       1 <0>        -0.1755
     15 C9          5.3408   -4.9205   -4.7727 C.3       1 <0>        -0.1780
     16 N5          5.3460   -6.4800   -2.8846 N.4       1 <0>        -0.3776
     17 C10         4.7670   -7.7092   -2.3294 C.3       1 <0>        -0.0191
     18 C11         5.3299   -7.9549   -0.9279 C.3       1 <0>        -0.1431
     19 C12         6.8521   -8.0991   -1.0131 C.3       1 <0>        -0.1351
     20 C13         7.4385   -6.8419   -1.6619 C.3       1 <0>        -0.1090
     21 H1          7.2320   -5.9769   -1.0317 H         1 <0>         0.0918
     22 C14         6.7975   -6.6375   -3.0363 C.3       1 <0>        -0.0152
     23 C15         8.9510   -7.0078   -1.8222 C.3       1 <0>        -0.1519
     24 H2          1.0042    1.8801    0.0026 H         1 <0>         0.1001
     25 H3         -0.5455    1.8639   -0.8728 H         1 <0>         0.1019
     26 H4         -0.5286    1.8543    0.9071 H         1 <0>         0.0964
     27 H5         -0.4624   -4.0552   -1.2315 H         1 <0>         0.1152
     28 H6         -0.4839   -2.9360   -2.6154 H         1 <0>         0.1248
     29 H7          2.1550   -3.0670   -1.6177 H         1 <0>         0.4030
     30 H8          3.6854   -4.4259   -2.7404 H         1 <0>         0.3915
     31 H9          2.8073   -6.9585   -3.6301 H         1 <0>         0.0976
     32 H10         2.7858   -5.8393   -5.0140 H         1 <0>         0.1162
     33 H11         4.5900   -7.1694   -6.1177 H         1 <0>         0.1108
     34 H12         6.1140   -7.4894   -5.2555 H         1 <0>         0.0901
     35 H13         4.6115   -8.2886   -4.7337 H         1 <0>         0.0872
     36 H14         5.1334   -4.0900   -4.0979 H         1 <0>         0.0786
     37 H15         6.4187   -5.0376   -4.8842 H         1 <0>         0.0891
     38 H16         4.8947   -4.7176   -5.7464 H         1 <0>         0.1120
     39 H17         3.6833   -7.6063   -2.2724 H         1 <0>         0.1325
     40 H18         5.0176   -8.5518   -2.9740 H         1 <0>         0.1344
     41 H19         5.0796   -7.1130   -0.2824 H         1 <0>         0.0857
     42 H20         4.9001   -8.8690   -0.5181 H         1 <0>         0.1142
     43 H21         7.2637   -8.2178   -0.0108 H         1 <0>         0.0951
     44 H22         7.1024   -8.9714   -1.6169 H         1 <0>         0.0835
     45 H23         7.0048   -7.5028   -3.6657 H         1 <0>         0.1340
     46 H24         7.2129   -5.7433   -3.5010 H         1 <0>         0.1331
     47 H25         9.1568   -7.8720   -2.4538 H         1 <0>         0.0680
     48 H26         9.3678   -6.1127   -2.2840 H         1 <0>         0.0683
     49 H27         9.4060   -7.1569   -0.8430 H         1 <0>         0.0783
     50 H28         5.1556   -5.7096   -2.2615 H         1 <0>         0.4137
@<TRIPOS>BOND
     1    1    2 1
     2    1   24 1
     3    1   25 1
     4    1   26 1
     5    2    6 2
     6    2    3 1
     7    3    4 2
     8    4    5 1
     9    4    7 1
    10    5    6 1
    11    7    8 1
    12    7   27 1
    13    7   28 1
    14    8    9 am
    15    8   29 1
    16    9   10 2
    17    9   11 am
    18   11   12 1
    19   11   30 1
    20   12   13 1
    21   12   31 1
    22   12   32 1
    23   13   14 1
    24   13   15 1
    25   13   16 1
    26   14   33 1
    27   14   34 1
    28   14   35 1
    29   15   36 1
    30   15   37 1
    31   15   38 1
    32   16   22 1
    33   16   17 1
    34   16   50 1
    35   17   18 1
    36   17   39 1
    37   17   40 1
    38   18   19 1
    39   18   41 1
    40   18   42 1
    41   19   20 1
    42   19   43 1
    43   19   44 1
    44   20   21 1
    45   20   22 1
    46   20   23 1
    47   22   45 1
    48   22   46 1
    49   23   47 1
    50   23   48 1
    51   23   49 1
@<TRIPOS>MOLECULE
ZINC07792793
   48    50     0     0     0
SMALL
USER_CHARGES
2-(cyclopropylcarbamoylmethyl-methyl-amino)-N-(7,10-dioxabicyclo[4.4.0]deca-2,4,11-trien-8-ylmethyl)acetamide
@<TRIPOS>ATOM
      1 C1         -0.8017    1.9868   -1.1173 C.3       1 <0>        -0.0589
      2 C2          1.3463    2.0098   -0.0000 C.3       1 <0>        -0.0263
      3 C3          1.2960    3.4942    0.2552 C.2       1 <0>         0.5012
      4 O1          0.2289    4.0439    0.4284 O.2       1 <0>        -0.5211
      5 N1          2.4369    4.2109    0.2909 N.am      1 <0>        -0.6981
      6 C4          2.3880    5.6539    0.5390 C.3       1 <0>         0.1283
      7 C5          3.8088    6.2216    0.5285 C.3       1 <0>         0.0365
      8 H1          4.2673    6.0463   -0.4447 H         1 <0>         0.0965
      9 C6          3.7662    7.7281    0.8177 C.3       1 <0>         0.0303
     10 O2          5.1096    8.2233    0.8136 O.3       1 <0>        -0.2990
     11 C7          6.0306    7.4979    1.5051 C.ar      1 <0>         0.0485
     12 C8          7.2413    8.0827    1.8457 C.ar      1 <0>        -0.1100
     13 C9          8.1881    7.3579    2.5443 C.ar      1 <0>        -0.1072
     14 C10         7.9312    6.0484    2.9058 C.ar      1 <0>        -0.1125
     15 C11         6.7264    5.4602    2.5708 C.ar      1 <0>        -0.1114
     16 C12         5.7715    6.1823    1.8704 C.ar      1 <0>         0.0436
     17 O3          4.5883    5.5906    1.5502 O.3       1 <0>        -0.3080
     18 C13         0.0021   -0.0041    0.0020 C.3       1 <0>        -0.0262
     19 C14        -1.3878   -0.5267    0.2592 C.2       1 <0>         0.5035
     20 O4         -2.3047    0.2481    0.4322 O.2       1 <0>        -0.5209
     21 N2         -1.6119   -1.8552    0.2970 N.am      1 <0>        -0.6750
     22 C15        -2.9630   -2.3633    0.5470 C.3       1 <0>         0.0605
     23 C16        -3.1087   -3.5325    1.5230 C.3       1 <0>        -0.1827
     24 C17        -3.3008   -3.7602    0.0223 C.3       1 <0>        -0.1785
     25 H2         -1.8268    1.6230   -1.0465 H         1 <0>         0.1389
     26 H3         -0.8000    3.0764   -1.0873 H         1 <0>         0.1377
     27 H4         -0.3600    1.6485   -2.0545 H         1 <0>         0.1194
     28 H5          1.9362    1.5270    0.7791 H         1 <0>         0.1616
     29 H6          1.8048    1.8234   -0.9711 H         1 <0>         0.1650
     30 H7          3.2903    3.7712    0.1524 H         1 <0>         0.4162
     31 H8          1.7980    6.1367   -0.2401 H         1 <0>         0.1063
     32 H9          1.9295    5.8403    1.5101 H         1 <0>         0.0948
     33 H10         3.1854    8.2343    0.0465 H         1 <0>         0.1282
     34 H11         3.3133    7.9025    1.7937 H         1 <0>         0.0844
     35 H12         7.4445    9.1055    1.5643 H         1 <0>         0.1388
     36 H13         9.1301    7.8153    2.8086 H         1 <0>         0.1375
     37 H14         8.6735    5.4842    3.4509 H         1 <0>         0.1363
     38 H15         6.5280    4.4373    2.8549 H         1 <0>         0.1337
     39 H16         0.3492   -0.3574   -0.9689 H         1 <0>         0.1647
     40 H17         0.6750   -0.3626    0.7809 H         1 <0>         0.1610
     41 H18        -0.8786   -2.4749    0.1586 H         1 <0>         0.4115
     42 H19        -3.7562   -1.6157    0.5347 H         1 <0>         0.1460
     43 H20        -2.1993   -3.9237    1.9791 H         1 <0>         0.1024
     44 H21        -3.9978   -3.5542    2.1532 H         1 <0>         0.1116
     45 H22        -4.3163   -3.9318   -0.3348 H         1 <0>         0.1130
     46 H23        -2.5177   -4.3013   -0.5089 H         1 <0>         0.1032
     47 N3         -0.0305    1.4733    0.0344 N.4       1 <0>        -0.3695
     48 H24        -0.4856    1.7779    0.9029 H         1 <0>         0.4442
@<TRIPOS>BOND
     1    1   25 1
     2    1   26 1
     3    1   27 1
     4    1   47 1
     5    2    3 1
     6    2   28 1
     7    2   29 1
     8    2   47 1
     9    3    4 2
    10    3    5 am
    11    5    6 1
    12    5   30 1
    13    6    7 1
    14    6   31 1
    15    6   32 1
    16    7    8 1
    17    7   17 1
    18    7    9 1
    19    9   10 1
    20    9   33 1
    21    9   34 1
    22   10   11 1
    23   11   16 ar
    24   11   12 ar
    25   12   13 ar
    26   12   35 1
    27   13   14 ar
    28   13   36 1
    29   14   15 ar
    30   14   37 1
    31   15   16 ar
    32   15   38 1
    33   16   17 1
    34   18   19 1
    35   18   39 1
    36   18   40 1
    37   18   47 1
    38   19   20 2
    39   19   21 am
    40   21   22 1
    41   21   41 1
    42   22   24 1
    43   22   23 1
    44   22   42 1
    45   23   24 1
    46   23   43 1
    47   23   44 1
    48   24   45 1
    49   24   46 1
    50   47   48 1
@<TRIPOS>MOLECULE
ZINC42961443
   60    61     0     0     0
SMALL
USER_CHARGES

@<TRIPOS>ATOM
      1 C1         -0.0546    1.5306    0.0140 C.3       1 <0>        -0.1704
      2 C2         -0.0315    0.0008    0.0063 C.3       1 <0>         0.1044
      3 N1          0.6599   -0.4712   -1.1959 N.am      1 <0>        -0.5826
      4 C3          2.1076   -0.6937   -1.1685 C.3       1 <0>         0.0875
      5 C4          2.3939   -2.1367   -0.7482 C.3       1 <0>        -0.1776
      6 C5         -0.0359   -0.7006   -2.3272 C.2       1 <0>         0.4998
      7 O1         -1.2344   -0.5164   -2.3498 O.2       1 <0>        -0.5282
      8 C6          0.6753   -1.1861   -3.5639 C.3       1 <0>        -0.0425
      9 N2         -0.2966   -1.3585   -4.6518 N.4       1 <0>        -0.3493
     10 C7          0.3627   -2.0580   -5.7524 C.3       1 <0>        -0.0083
     11 C8         -0.6631   -2.8659   -6.5162 C.3       1 <0>        -0.1570
     12 C9         -1.1941   -2.0339   -7.6977 C.3       1 <0>         0.1145
     13 N3         -1.3840   -0.6216   -7.3099 N.am      1 <0>        -0.6401
     14 C10        -1.9498   -0.2377   -6.0330 C.3       1 <0>         0.0973
     15 C11        -0.8242   -0.0907   -4.9832 C.3       1 <0>        -0.0641
     16 C12        -1.0174    0.3447   -8.1749 C.2       1 <0>         0.6998
     17 O2         -0.4598    0.0504   -9.2145 O.2       1 <0>        -0.5617
     18 N4         -1.2688    1.6373   -7.8876 N.am      1 <0>        -0.7387
     19 C13        -0.9729    2.6782   -8.8752 C.3       1 <0>         0.1577
     20 C14         0.4959    3.0901   -8.7574 C.3       1 <0>        -0.1228
     21 C15         0.8049    4.1772   -9.7888 C.3       1 <0>        -0.1134
     22 C16        -0.0879    5.3928   -9.5316 C.3       1 <0>         0.1035
     23 C17        -1.5567    4.9808   -9.6493 C.3       1 <0>        -0.1511
     24 C18        -1.8657    3.8938   -8.6180 C.3       1 <0>        -0.1236
     25 O3          0.2007    6.4081  -10.4949 O.3       1 <0>        -0.5653
     26 H1          0.9675    1.9094    0.0104 H         1 <0>         0.0607
     27 H2         -0.5786    1.8905   -0.8714 H         1 <0>         0.0589
     28 H3         -0.5690    1.8817    0.9085 H         1 <0>         0.0787
     29 H4          0.4925   -0.3592    0.8917 H         1 <0>         0.0917
     30 H5         -1.0536   -0.3780    0.0100 H         1 <0>         0.0936
     31 H6          2.5215   -0.5155   -2.1610 H         1 <0>         0.0820
     32 H7          2.5670   -0.0095   -0.4551 H         1 <0>         0.1002
     33 H8          1.9346   -2.8209   -1.4616 H         1 <0>         0.0545
     34 H9          3.4711   -2.3023   -0.7278 H         1 <0>         0.0826
     35 H10         1.9801   -2.3149    0.2444 H         1 <0>         0.0704
     36 H11         1.4274   -0.4552   -3.8610 H         1 <0>         0.1589
     37 H12         1.1588   -2.1402   -3.3540 H         1 <0>         0.1614
     38 H13         0.8247   -1.3314   -6.4206 H         1 <0>         0.1348
     39 H14         1.1275   -2.7245   -5.3538 H         1 <0>         0.1379
     40 H15        -0.2001   -3.7779   -6.8929 H         1 <0>         0.1289
     41 H16        -1.4890   -3.1243   -5.8535 H         1 <0>         0.0903
     42 H17        -0.4814   -2.0861   -8.5208 H         1 <0>         0.1123
     43 H18        -2.1483   -2.4463   -8.0254 H         1 <0>         0.0858
     44 H19        -2.4720    0.7132   -6.1392 H         1 <0>         0.1174
     45 H20        -2.6541   -1.0019   -5.7043 H         1 <0>         0.1072
     46 H21        -1.2266    0.3787   -4.0855 H         1 <0>         0.1628
     47 H22        -0.0304    0.5355   -5.3903 H         1 <0>         0.1251
     48 H23        -1.6457    1.8784   -7.0270 H         1 <0>         0.3932
     49 H24        -1.1631    2.2931   -9.8770 H         1 <0>         0.0947
     50 H25         0.6861    3.4752   -7.7556 H         1 <0>         0.0632
     51 H26         1.1319    2.2241   -8.9407 H         1 <0>         0.0749
     52 H27         1.8513    4.4706   -9.7049 H         1 <0>         0.0760
     53 H28         0.6147    3.7921  -10.7906 H         1 <0>         0.0757
     54 H29         0.1023    5.7778   -8.5298 H         1 <0>         0.0548
     55 H30        -2.1927    5.8468   -9.4661 H         1 <0>         0.0749
     56 H31        -1.7469    4.5958  -10.6512 H         1 <0>         0.0777
     57 H32        -2.9121    3.6003   -8.7019 H         1 <0>         0.0749
     58 H33        -1.6755    4.2788   -7.6162 H         1 <0>         0.0695
     59 H34        -0.3297    7.2101  -10.3920 H         1 <0>         0.3819
     60 H35        -1.0501   -1.9387   -4.3147 H         1 <0>         0.4246
@<TRIPOS>BOND
     1    1    2 1
     2    1   26 1
     3    1   27 1
     4    1   28 1
     5    2    3 1
     6    2   29 1
     7    2   30 1
     8    3    4 1
     9    3    6 am
    10    4    5 1
    11    4   31 1
    12    4   32 1
    13    5   33 1
    14    5   34 1
    15    5   35 1
    16    6    7 2
    17    6    8 1
    18    8    9 1
    19    8   36 1
    20    8   37 1
    21    9   15 1
    22    9   10 1
    23    9   60 1
    24   10   11 1
    25   10   38 1
    26   10   39 1
    27   11   12 1
    28   11   40 1
    29   11   41 1
    30   12   13 1
    31   12   42 1
    32   12   43 1
    33   13   14 1
    34   13   16 am
    35   14   15 1
    36   14   44 1
    37   14   45 1
    38   15   46 1
    39   15   47 1
    40   16   17 2
    41   16   18 am
    42   18   19 1
    43   18   48 1
    44   19   24 1
    45   19   20 1
    46   19   49 1
    47   20   21 1
    48   20   50 1
    49   20   51 1
    50   21   22 1
    51   21   52 1
    52   21   53 1
    53   22   23 1
    54   22   25 1
    55   22   54 1
    56   23   24 1
    57   23   55 1
    58   23   56 1
    59   24   57 1
    60   24   58 1
    61   25   59 1
@<TRIPOS>MOLECULE
ZINC58023342
   52    54     0     0     0
SMALL
USER_CHARGES

@<TRIPOS>ATOM
      1 C1         -0.1178    1.5327    0.2653 C.3       1 <0>        -0.1821
      2 C2         -0.0255    0.0239    0.0283 C.3       1 <0>         0.0078
      3 H1         -1.0262   -0.3829   -0.1170 H         1 <0>         0.1637
      4 C3          0.8080   -0.2417   -1.1988 C.2       1 <0>         0.5063
      5 O1          1.9312   -0.6850   -1.0847 O.2       1 <0>        -0.5126
      6 N1          0.3052    0.0132   -2.4230 N.am      1 <0>        -0.6309
      7 C4          1.0353   -0.3360   -3.5669 C.ar      1 <0>         0.0860
      8 C5          2.4210   -0.2719   -3.5539 C.ar      1 <0>        -0.0779
      9 C6          3.1390   -0.6172   -4.6831 C.ar      1 <0>        -0.1385
     10 C7          2.4796   -1.0266   -5.8276 C.ar      1 <0>        -0.0741
     11 C8          1.0989   -1.0930   -5.8480 C.ar      1 <0>        -0.1904
     12 C9          0.3719   -0.7539   -4.7182 C.ar      1 <0>         0.1178
     13 O2         -0.9859   -0.8241   -4.7349 O.3       1 <0>        -0.3228
     14 C10        -1.5980   -1.2610   -5.9501 C.3       1 <0>         0.0259
     15 N2          0.5994   -0.6173    1.1929 N.4       1 <0>        -0.3623
     16 C11         0.5774   -2.0744    1.0177 C.3       1 <0>        -0.0165
     17 C12         1.2991   -2.7438    2.1893 C.3       1 <0>        -0.1340
     18 C13         0.5911   -2.3745    3.4960 C.3       1 <0>        -0.1566
     19 C14         0.5544   -0.8496    3.6319 C.3       1 <0>         0.1773
     20 H2          1.5723   -0.4654    3.6977 H         1 <0>         0.1139
     21 C15        -0.1397   -0.2504    2.4069 C.3       1 <0>        -0.0346
     22 N3         -0.1857   -0.4839    4.8422 N.am      1 <0>        -0.6326
     23 C16         0.3557    0.2863    5.9719 C.3       1 <0>         0.0909
     24 C17        -0.8273    0.3807    6.9550 C.3       1 <0>         0.0874
     25 N4         -1.9096   -0.3464    6.2748 N.am      1 <0>        -0.7327
     26 C18        -1.4646   -0.7932    5.0930 C.2       1 <0>         0.7019
     27 O3         -2.1577   -1.4256    4.3197 O.2       1 <0>        -0.5827
     28 H3          0.8829    1.9395    0.4107 H         1 <0>         0.0917
     29 H4         -0.5815    2.0085   -0.5988 H         1 <0>         0.1123
     30 H5         -0.7207    1.7248    1.1529 H         1 <0>         0.0996
     31 H6         -0.5620    0.4384   -2.5123 H         1 <0>         0.4215
     32 H7          2.9386    0.0482   -2.6617 H         1 <0>         0.1472
     33 H8          4.2178   -0.5669   -4.6719 H         1 <0>         0.1344
     34 H9          3.0447   -1.2949   -6.7079 H         1 <0>         0.1344
     35 H10         0.5869   -1.4128   -6.7435 H         1 <0>         0.1391
     36 H11        -1.2498   -2.2653   -6.1916 H         1 <0>         0.0610
     37 H12        -2.6811   -1.2715   -5.8280 H         1 <0>         0.1064
     38 H13        -1.3300   -0.5795   -6.7574 H         1 <0>         0.0619
     39 H14        -0.4557   -2.4202    0.9826 H         1 <0>         0.1306
     40 H15         1.0788   -2.3355    0.0857 H         1 <0>         0.1394
     41 H16         1.2802   -3.8257    2.0582 H         1 <0>         0.1191
     42 H17         2.3325   -2.3989    2.2251 H         1 <0>         0.0917
     43 H18        -0.4269   -2.7638    3.4816 H         1 <0>         0.1012
     44 H19         1.1344   -2.8025    4.3385 H         1 <0>         0.0974
     45 H20        -0.1678    0.8352    2.5004 H         1 <0>         0.1366
     46 H21        -1.1575   -0.6350    2.3422 H         1 <0>         0.1478
     47 H22         1.1921   -0.2422    6.4294 H         1 <0>         0.0917
     48 H23         0.6621    1.2801    5.6455 H         1 <0>         0.0891
     49 H24        -0.5783   -0.1009    7.9006 H         1 <0>         0.0924
     50 H25        -1.1082    1.4214    7.1168 H         1 <0>         0.0916
     51 H26        -2.8047   -0.4779    6.6246 H         1 <0>         0.4374
     52 H27         1.5553   -0.3048    1.2750 H         1 <0>         0.4272
@<TRIPOS>BOND
     1    1    2 1
     2    1   28 1
     3    1   29 1
     4    1   30 1
     5    2    3 1
     6    2    4 1
     7    2   15 1
     8    4    5 2
     9    4    6 am
    10    6    7 1
    11    6   31 1
    12    7   12 ar
    13    7    8 ar
    14    8    9 ar
    15    8   32 1
    16    9   10 ar
    17    9   33 1
    18   10   11 ar
    19   10   34 1
    20   11   12 ar
    21   11   35 1
    22   12   13 1
    23   13   14 1
    24   14   36 1
    25   14   37 1
    26   14   38 1
    27   15   21 1
    28   15   16 1
    29   15   52 1
    30   16   17 1
    31   16   39 1
    32   16   40 1
    33   17   18 1
    34   17   41 1
    35   17   42 1
    36   18   19 1
    37   18   43 1
    38   18   44 1
    39   19   20 1
    40   19   21 1
    41   19   22 1
    42   21   45 1
    43   21   46 1
    44   22   26 am
    45   22   23 1
    46   23   24 1
    47   23   47 1
    48   23   48 1
    49   24   25 1
    50   24   49 1
    51   24   50 1
    52   25   26 am
    53   25   51 1
    54   26   27 2
@<TRIPOS>MOLECULE
ZINC63202829
   46    47     0     0     0
SMALL
USER_CHARGES

@<TRIPOS>ATOM
      1 C1         -1.3952   -0.4480    0.0223 C.3       1 <0>        -0.0573
      2 N1         -0.0400    0.1179    0.0534 N.4       1 <0>        -0.3850
      3 C2         -0.1224    1.5837    0.1051 C.3       1 <0>        -0.0595
      4 C3          0.6693   -0.3749    1.2417 C.3       1 <0>         0.0459
      5 C4         -0.1088    0.0175    2.4993 C.3       1 <0>        -0.1314
      6 C5          0.6299   -0.4957    3.7369 C.3       1 <0>        -0.1226
      7 C6          0.7480   -2.0195    3.6650 C.3       1 <0>        -0.1310
      8 C7          1.5261   -2.4119    2.4074 C.3       1 <0>        -0.1202
      9 C8          0.7874   -1.8986    1.1698 C.3       1 <0>        -0.1382
     10 C9          2.0679    0.2432    1.2937 C.3       1 <0>         0.0966
     11 N2          2.7688   -0.0282    0.0362 N.am      1 <0>        -0.7204
     12 C10         3.9788    0.5196   -0.1927 C.2       1 <0>         0.5285
     13 O1          4.4876    1.2378    0.6429 O.2       1 <0>        -0.4796
     14 C11         4.6932    0.2429   -1.4743 C.2       1 <0>         0.5070
     15 O2          4.1843   -0.4754   -2.3100 O.2       1 <0>        -0.4386
     16 N3          5.9031    0.7908   -1.7033 N.am      1 <0>        -0.5822
     17 C12         6.5674    0.5335   -2.8949 C.2       1 <0>         0.2758
     18 N4          6.2010   -0.2051   -3.9338 N.2       1 <0>        -0.2737
     19 N5          6.9358   -0.3334   -4.9508 N.2       1 <0>        -0.2075
     20 C13         8.1114    0.2565   -5.0465 C.2       1 <0>        -0.0347
     21 S1          8.1609    1.1101   -3.4733 S.3       1 <0>         0.0959
     22 C14         9.1221    0.2259   -6.1638 C.3       1 <0>         0.3824
     23 F1          8.4617    0.0576   -7.3856 F         1 <0>        -0.1689
     24 F2          9.8350    1.4295   -6.1809 F         1 <0>        -0.1791
     25 H1         -1.9409   -0.1331    0.9117 H         1 <0>         0.1283
     26 H2         -1.9162   -0.0947   -0.8676 H         1 <0>         0.1294
     27 H3         -1.3342   -1.5360   -0.0004 H         1 <0>         0.1275
     28 H4         -0.6630    1.8858    1.0021 H         1 <0>         0.1299
     29 H5          0.8832    2.0036    0.1282 H         1 <0>         0.1221
     30 H6         -0.6487    1.9493   -0.7767 H         1 <0>         0.1306
     31 H7         -0.1930    1.1031    2.5505 H         1 <0>         0.0932
     32 H8         -1.1052   -0.4228    2.4622 H         1 <0>         0.0985
     33 H9          1.6263   -0.0554    3.7740 H         1 <0>         0.0768
     34 H10         0.0755   -0.2162    4.6328 H         1 <0>         0.0902
     35 H11         1.2743   -2.3851    4.5467 H         1 <0>         0.0826
     36 H12        -0.2484   -2.4598    3.6279 H         1 <0>         0.0731
     37 H13         2.5225   -1.9715    2.4445 H         1 <0>         0.0753
     38 H14         1.6103   -3.4974    2.3562 H         1 <0>         0.0894
     39 H15        -0.2090   -2.3389    1.1327 H         1 <0>         0.0981
     40 H16         1.3418   -2.1782    0.2738 H         1 <0>         0.0867
     41 H17         1.9840    1.3204    1.4377 H         1 <0>         0.1078
     42 H18         2.6267   -0.1916    2.1224 H         1 <0>         0.1258
     43 H19         2.3622   -0.6023   -0.6316 H         1 <0>         0.4100
     44 H20         6.3098    1.3648   -1.0354 H         1 <0>         0.4454
     45 H21         9.8124   -0.6030   -6.0067 H         1 <0>         0.1569
     46 H22         0.4604   -0.1617   -0.7770 H         1 <0>         0.4202
@<TRIPOS>BOND
     1    1    2 1
     2    1   25 1
     3    1   26 1
     4    1   27 1
     5    2    3 1
     6    2    4 1
     7    2   46 1
     8    3   28 1
     9    3   29 1
    10    3   30 1
    11    4    9 1
    12    4    5 1
    13    4   10 1
    14    5    6 1
    15    5   31 1
    16    5   32 1
    17    6    7 1
    18    6   33 1
    19    6   34 1
    20    7    8 1
    21    7   35 1
    22    7   36 1
    23    8    9 1
    24    8   37 1
    25    8   38 1
    26    9   39 1
    27    9   40 1
    28   10   11 1
    29   10   41 1
    30   10   42 1
    31   11   12 am
    32   11   43 1
    33   12   13 2
    34   12   14 1
    35   14   15 2
    36   14   16 am
    37   16   17 1
    38   16   44 1
    39   17   21 1
    40   17   18 2
    41   18   19 1
    42   19   20 2
    43   20   21 1
    44   20   22 1
    45   22   23 1
    46   22   24 1
    47   22   45 1
@<TRIPOS>MOLECULE
ZINC66497692
   50    51     0     0     0
SMALL
USER_CHARGES

@<TRIPOS>ATOM
      1 C1         -0.0184    1.5028    0.0103 C.3       1 <0>        -0.1306
      2 C2          0.0021   -0.0041    0.0020 C.ar      1 <0>        -0.0206
      3 C3          0.0057   -0.6887   -1.1989 C.ar      1 <0>        -0.1404
      4 C4          0.0245   -2.0709   -1.2065 C.ar      1 <0>        -0.0133
      5 C5          0.0400   -2.7685   -0.0132 C.ar      1 <0>        -0.6894
      6 C6          0.0373   -2.0839    1.1877 C.ar      1 <0>        -0.0212
      7 C7          0.0229   -0.7016    1.1953 C.ar      1 <0>        -0.1424
      8 S1          0.0628   -4.5303   -0.0229 S.o2      1 <0>         2.6952
      9 O1         -0.4759   -4.9503    1.2232 O.2       1 <0>        -0.9502
     10 O2         -0.4897   -4.9367   -1.2674 O.2       1 <0>        -0.9465
     11 N1          1.6509   -4.9994   -0.0343 N.pl3     1 <0>        -1.1191
     12 C8          2.5116   -4.6990    1.1125 C.3       1 <0>         0.1235
     13 C9          3.7866   -5.5405    1.0275 C.3       1 <0>        -0.1158
     14 H1          4.2704   -5.3721    0.0654 H         1 <0>         0.1062
     15 C10         3.4309   -7.0233    1.1684 C.3       1 <0>        -0.1391
     16 C11         4.7198   -7.8503    1.1607 C.3       1 <0>        -0.1411
     17 C12         5.6377   -7.3647    2.2847 C.3       1 <0>        -0.0209
     18 N2          5.9622   -5.9481    2.0787 N.4       1 <0>        -0.3684
     19 C13         4.7395   -5.1397    2.1558 C.3       1 <0>        -0.0050
     20 C14         6.9049   -5.5075    3.1156 C.3       1 <0>        -0.0306
     21 C15         8.2098   -6.2438    2.9539 C.2       1 <0>         0.5097
     22 O3          8.3415   -7.0557    2.0626 O.2       1 <0>        -0.5168
     23 N3          9.2304   -6.0001    3.7997 N.am      1 <0>        -0.7050
     24 C16        10.4989   -6.7159    3.6425 C.3       1 <0>         0.2225
     25 C17        11.4435   -6.2743    4.6815 C.1       1 <0>         0.1717
     26 N4         12.1724   -5.9336    5.4834 N.1       1 <0>        -0.3700
     27 H2          1.0042    1.8801    0.0026 H         1 <0>         0.0818
     28 H3         -0.5455    1.8639   -0.8728 H         1 <0>         0.0768
     29 H4         -0.5286    1.8543    0.9071 H         1 <0>         0.0762
     30 H5         -0.0064   -0.1436   -2.1312 H         1 <0>         0.1361
     31 H6          0.0266   -2.6057   -2.1448 H         1 <0>         0.1416
     32 H7          0.0491   -2.6289    2.1200 H         1 <0>         0.1392
     33 H8          0.0245   -0.1667    2.1335 H         1 <0>         0.1349
     34 H9          2.0112   -5.4731   -0.8002 H         1 <0>         0.4220
     35 H10         2.7734   -3.6409    1.1030 H         1 <0>         0.0782
     36 H11         1.9820   -4.9339    2.0358 H         1 <0>         0.0938
     37 H12         2.9008   -7.1834    2.1073 H         1 <0>         0.0891
     38 H13         2.7979   -7.3271    0.3347 H         1 <0>         0.0984
     39 H14         4.4786   -8.9018    1.3164 H         1 <0>         0.1156
     40 H15         5.2237   -7.7300    0.2017 H         1 <0>         0.0903
     41 H16         5.1329   -7.4858    3.2431 H         1 <0>         0.1280
     42 H17         6.5562   -7.9516    2.2821 H         1 <0>         0.1481
     43 H18         4.9945   -4.0845    2.0577 H         1 <0>         0.1375
     44 H19         4.2543   -5.3076    3.1173 H         1 <0>         0.1381
     45 H20         7.0778   -4.4358    3.0177 H         1 <0>         0.1646
     46 H21         6.4875   -5.7197    4.0999 H         1 <0>         0.1641
     47 H22         9.1250   -5.3507    4.5126 H         1 <0>         0.4183
     48 H23        10.3259   -7.7876    3.7404 H         1 <0>         0.1270
     49 H24        10.9162   -6.5037    2.6582 H         1 <0>         0.1271
     50 H25         6.3851   -5.8297    1.1703 H         1 <0>         0.4306
@<TRIPOS>BOND
     1    1    2 1
     2    1   27 1
     3    1   28 1
     4    1   29 1
     5    2    7 ar
     6    2    3 ar
     7    3    4 ar
     8    3   30 1
     9    4    5 ar
    10    4   31 1
    11    5    6 ar
    12    5    8 1
    13    6    7 ar
    14    6   32 1
    15    7   33 1
    16    8    9 2
    17    8   10 2
    18    8   11 1
    19   11   12 1
    20   11   34 1
    21   12   13 1
    22   12   35 1
    23   12   36 1
    24   13   14 1
    25   13   19 1
    26   13   15 1
    27   15   16 1
    28   15   37 1
    29   15   38 1
    30   16   17 1
    31   16   39 1
    32   16   40 1
    33   17   18 1
    34   17   41 1
    35   17   42 1
    36   18   19 1
    37   18   20 1
    38   18   50 1
    39   19   43 1
    40   19   44 1
    41   20   21 1
    42   20   45 1
    43   20   46 1
    44   21   22 2
    45   21   23 am
    46   23   24 1
    47   23   47 1
    48   24   25 1
    49   24   48 1
    50   24   49 1
    51   25   26 3
@<TRIPOS>MOLECULE
ZINC67633078
   53    55     0     0     0
SMALL
USER_CHARGES

@<TRIPOS>ATOM
      1 C1         -0.0187    1.5258    0.0104 C.3       1 <0>        -0.1855
      2 C2          0.0021   -0.0041    0.0020 C.3       1 <0>         0.0245
      3 C3         -1.4333   -0.5336    0.0129 C.3       1 <0>        -0.1832
      4 N1          0.6897   -0.4778   -1.2066 N.4       1 <0>        -0.3883
      5 C4          0.7306   -1.9557   -1.2087 C.3       1 <0>        -0.0086
      6 C5          2.1013   -2.3126   -1.8359 C.3       1 <0>        -0.1429
      7 C6          3.0103   -1.1957   -1.2587 C.3       1 <0>        -0.1186
      8 H1          3.3476   -1.4537   -0.2548 H         1 <0>         0.1162
      9 C7          2.0737    0.0302   -1.2214 C.3       1 <0>        -0.0084
     10 C8          4.2050   -0.9406   -2.1798 C.3       1 <0>         0.1283
     11 N2          5.0743   -2.1198   -2.1901 N.am      1 <0>        -0.7319
     12 C9          6.1960   -2.1236   -2.9373 C.2       1 <0>         0.5059
     13 O1          6.4858   -1.1508   -3.6011 O.2       1 <0>        -0.5144
     14 C10         7.0901   -3.3366   -2.9479 C.3       1 <0>         0.1001
     15 N3          8.2341   -3.0923   -3.8299 N.am      1 <0>        -0.5652
     16 C11         8.2489   -3.3771   -5.1470 C.2       1 <0>         0.5414
     17 O2          7.3522   -3.8653   -5.8008 O.2       1 <0>        -0.4557
     18 C12         9.6197   -2.9593   -5.6413 C.3       1 <0>         0.1563
     19 N4         10.2800   -2.4388   -4.4317 N.am      1 <0>        -0.7114
     20 C13         9.3911   -2.5537   -3.4284 C.2       1 <0>         0.7096
     21 O3          9.6153   -2.2097   -2.2845 O.2       1 <0>        -0.5397
     22 C14        10.3827   -4.1645   -6.1947 C.3       1 <0>        -0.1553
     23 C15         9.4984   -1.8636   -6.7022 C.3       1 <0>        -0.1648
     24 C16         9.7646   -2.2562   -8.1568 C.3       1 <0>        -0.1611
     25 C17        10.7834   -1.4060   -7.3952 C.3       1 <0>        -0.1628
     26 H2          1.0039    1.9031    0.0027 H         1 <0>         0.0815
     27 H3         -0.5459    1.8868   -0.8726 H         1 <0>         0.0816
     28 H4         -0.5289    1.8773    0.9072 H         1 <0>         0.1058
     29 H5          0.5293   -0.3651    0.8851 H         1 <0>         0.1360
     30 H6         -1.9605   -0.1726   -0.8702 H         1 <0>         0.0809
     31 H7         -1.4185   -1.6235    0.0069 H         1 <0>         0.0808
     32 H8         -1.9435   -0.1821    0.9097 H         1 <0>         0.1053
     33 H9          0.6682   -2.3385   -0.1901 H         1 <0>         0.1337
     34 H10        -0.0806   -2.3569   -1.8162 H         1 <0>         0.1366
     35 H11         2.4362   -3.2968   -1.5083 H         1 <0>         0.1189
     36 H12         2.0590   -2.2583   -2.9237 H         1 <0>         0.1036
     37 H13         2.2333    0.6458   -2.1066 H         1 <0>         0.1361
     38 H14         2.2638    0.6148   -0.3213 H         1 <0>         0.1391
     39 H15         3.8487   -0.7430   -3.1908 H         1 <0>         0.0793
     40 H16         4.7658   -0.0790   -1.8174 H         1 <0>         0.0833
     41 H17         4.8425   -2.8978   -1.6592 H         1 <0>         0.4052
     42 H18         7.4465   -3.5342   -1.9369 H         1 <0>         0.1322
     43 H19         6.5294   -4.1982   -3.3103 H         1 <0>         0.1290
     44 H20        11.1793   -2.0803   -4.3710 H         1 <0>         0.4428
     45 H21         9.8310   -4.5901   -7.0329 H         1 <0>         0.0903
     46 H22        11.3688   -3.8460   -6.5330 H         1 <0>         0.0854
     47 H23        10.4919   -4.9158   -5.4126 H         1 <0>         0.0722
     48 H24         8.7319   -1.1114   -6.5157 H         1 <0>         0.1143
     49 H25        10.0261   -3.2950   -8.3580 H         1 <0>         0.1076
     50 H26         9.1730   -1.7623   -8.9277 H         1 <0>         0.1035
     51 H27        10.8621   -0.3528   -7.6650 H         1 <0>         0.1038
     52 H28        11.7152   -1.8855   -7.0953 H         1 <0>         0.1012
     53 H29         0.1997   -0.1525   -2.0265 H         1 <0>         0.4255
@<TRIPOS>BOND
     1    1    2 1
     2    1   26 1
     3    1   27 1
     4    1   28 1
     5    2    3 1
     6    2    4 1
     7    2   29 1
     8    3   30 1
     9    3   31 1
    10    3   32 1
    11    4    9 1
    12    4    5 1
    13    4   53 1
    14    5    6 1
    15    5   33 1
    16    5   34 1
    17    6    7 1
    18    6   35 1
    19    6   36 1
    20    7    8 1
    21    7    9 1
    22    7   10 1
    23    9   37 1
    24    9   38 1
    25   10   11 1
    26   10   39 1
    27   10   40 1
    28   11   12 am
    29   11   41 1
    30   12   13 2
    31   12   14 1
    32   14   15 1
    33   14   42 1
    34   14   43 1
    35   15   20 am
    36   15   16 am
    37   16   17 2
    38   16   18 1
    39   18   19 1
    40   18   22 1
    41   18   23 1
    42   19   20 am
    43   19   44 1
    44   20   21 2
    45   22   45 1
    46   22   46 1
    47   22   47 1
    48   23   25 1
    49   23   24 1
    50   23   48 1
    51   24   25 1
    52   24   49 1
    53   24   50 1
    54   25   51 1
    55   25   52 1
@<TRIPOS>MOLECULE
ZINC37999908
   45    46     0     0     0
SMALL
USER_CHARGES

@<TRIPOS>ATOM
      1 C1         -0.0173    1.4248    0.0099 C.3       1 <0>         0.0244
      2 O1          0.0021   -0.0041    0.0020 O.3       1 <0>        -0.3153
      3 C2          0.6062   -0.6075   -1.0563 C.ar      1 <0>         0.1046
      4 C3          1.1728    0.1612   -2.0622 C.ar      1 <0>        -0.1670
      5 C4          1.7864   -0.4517   -3.1373 C.ar      1 <0>        -0.1012
      6 C5          1.8363   -1.8358   -3.2107 C.ar      1 <0>         0.0789
      7 C6          1.2705   -2.6045   -2.2044 C.ar      1 <0>        -0.1663
      8 C7          0.6606   -1.9916   -1.1272 C.ar      1 <0>        -0.1139
      9 O2          2.4396   -2.4392   -4.2695 O.3       1 <0>        -0.3024
     10 C8          2.4542   -3.8681   -4.2801 C.3       1 <0>         0.0300
     11 C9          3.1701   -4.3615   -5.5390 C.3       1 <0>         0.0862
     12 H1          4.1638   -3.9164   -5.5899 H         1 <0>         0.1347
     13 C10         3.2960   -5.8856   -5.4899 C.3       1 <0>        -0.0424
     14 N1          4.0872   -6.3488   -6.6377 N.4       1 <0>        -0.5010
     15 C11         4.2080   -7.8120   -6.5906 C.3       1 <0>         0.0045
     16 C12         5.0321   -8.2945   -7.7860 C.3       1 <0>         0.0217
     17 H2          6.0253   -7.8470   -7.7482 H         1 <0>         0.0956
     18 C13         5.1561   -9.8202   -7.7399 C.3       1 <0>         0.0347
     19 O3          5.8308  -10.2721   -8.9178 O.3       1 <0>        -0.3634
     20 C14         5.1791   -9.8907  -10.1330 C.3       1 <0>         0.0170
     21 C15         5.0551   -8.3650  -10.1792 C.3       1 <0>         0.0300
     22 O4          4.3811   -7.9117   -9.0012 O.3       1 <0>        -0.3891
     23 O5          2.4186   -3.9826   -6.6938 O.3       1 <0>        -0.5422
     24 H3          1.0053    1.8021    0.0021 H         1 <0>         0.0579
     25 H4         -0.5445    1.7859   -0.8732 H         1 <0>         0.0580
     26 H5         -0.5275    1.7763    0.9067 H         1 <0>         0.1053
     27 H6          1.1340    1.2390   -2.0050 H         1 <0>         0.1402
     28 H7          2.2270    0.1469   -3.9209 H         1 <0>         0.1366
     29 H8          1.3090   -3.6823   -2.2617 H         1 <0>         0.1307
     30 H9          0.2233   -2.5901   -0.3417 H         1 <0>         0.1375
     31 H10         2.9791   -4.2327   -3.3971 H         1 <0>         0.0807
     32 H11         1.4303   -4.2420   -4.2743 H         1 <0>         0.0763
     33 H12         3.7915   -6.1796   -4.5647 H         1 <0>         0.1476
     34 H13         2.3031   -6.3336   -5.5286 H         1 <0>         0.1414
     35 H14         3.6285   -6.0766   -7.4942 H         1 <0>         0.4415
     36 H15         4.7035   -8.1061   -5.6653 H         1 <0>         0.1503
     37 H16         3.2151   -8.2600   -6.6292 H         1 <0>         0.1423
     38 H17         5.7265  -10.1128   -6.8584 H         1 <0>         0.1163
     39 H18         4.1621  -10.2653   -7.6960 H         1 <0>         0.0734
     40 H19         5.7662  -10.2344  -10.9847 H         1 <0>         0.1191
     41 H20         4.1858  -10.3381  -10.1697 H         1 <0>         0.0708
     42 H21         6.0491   -7.9199  -10.2230 H         1 <0>         0.0732
     43 H22         4.4847   -8.0723  -11.0607 H         1 <0>         0.1218
     44 H23         1.5219   -4.3438   -6.7155 H         1 <0>         0.3908
     45 H24         5.0064   -5.9341   -6.6019 H         1 <0>         0.4303
@<TRIPOS>BOND
     1    1    2 1
     2    1   24 1
     3    1   25 1
     4    1   26 1
     5    2    3 1
     6    3    8 ar
     7    3    4 ar
     8    4    5 ar
     9    4   27 1
    10    5    6 ar
    11    5   28 1
    12    6    7 ar
    13    6    9 1
    14    7    8 ar
    15    7   29 1
    16    8   30 1
    17    9   10 1
    18   10   11 1
    19   10   31 1
    20   10   32 1
    21   11   12 1
    22   11   13 1
    23   11   23 1
    24   13   14 1
    25   13   33 1
    26   13   34 1
    27   14   15 1
    28   14   35 1
    29   14   45 1
    30   15   16 1
    31   15   36 1
    32   15   37 1
    33   16   17 1
    34   16   22 1
    35   16   18 1
    36   18   19 1
    37   18   38 1
    38   18   39 1
    39   19   20 1
    40   20   21 1
    41   20   40 1
    42   20   41 1
    43   21   22 1
    44   21   42 1
    45   21   43 1
    46   23   44 1
@<TRIPOS>MOLECULE
ZINC41885517
   48    48     0     0     0
SMALL
USER_CHARGES

@<TRIPOS>ATOM
      1 C1          0.0364    1.3457    0.1659 C.3       1 <0>        -0.1916
      2 C2         -0.0626   -0.1592   -0.0918 C.3       1 <0>        -0.1432
      3 C3          0.6693   -0.5034   -1.3905 C.3       1 <0>         0.0454
      4 C4          0.7099   -2.0228   -1.5657 C.3       1 <0>        -0.1357
      5 C5         -0.7128   -2.5523   -1.7567 C.3       1 <0>        -0.1629
      6 C6         -0.0678    0.1269   -2.5739 C.3       1 <0>         0.0996
      7 N1          0.0398    1.5858   -2.4952 N.am      1 <0>        -0.7271
      8 C7         -0.6437    2.3596   -3.3614 C.2       1 <0>         0.5163
      9 O1         -1.3484    1.8479   -4.2066 O.2       1 <0>        -0.4824
     10 C8         -0.5341    3.8470   -3.2812 C.2       1 <0>         0.5088
     11 O2          0.1706    4.3588   -2.4359 O.2       1 <0>        -0.4948
     12 N2         -1.2176    4.6208   -4.1474 N.am      1 <0>        -0.6351
     13 C9         -1.0241    6.0009   -4.1514 C.ar      1 <0>         0.1578
     14 C10         0.2316    6.5267   -3.8629 C.ar      1 <0>        -0.1198
     15 C11         0.4264    7.8897   -3.8664 C.ar      1 <0>        -0.0492
     16 C12        -0.6390    8.7455   -4.1602 C.ar      1 <0>        -0.0273
     17 C13        -1.8991    8.2141   -4.4495 C.ar      1 <0>        -0.0464
     18 C14        -2.0856    6.8499   -4.4494 C.ar      1 <0>        -0.1332
     19 C15        -0.4402   10.1636   -4.1642 C.1       1 <0>         0.2430
     20 N3         -0.2824   11.2886   -4.1675 N.1       1 <0>        -0.3988
     21 N4          2.0409    0.0196   -1.3331 N.4       1 <0>        -0.3874
     22 C16         2.7871   -0.6779   -0.2774 C.3       1 <0>        -0.0573
     23 C17         2.7026   -0.1985   -2.6264 C.3       1 <0>        -0.0613
     24 H1          1.0782    1.6586    0.0958 H         1 <0>         0.0472
     25 H2         -0.5545    1.8812   -0.5772 H         1 <0>         0.0853
     26 H3         -0.3439    1.5695    1.1625 H         1 <0>         0.0949
     27 H4          0.3938   -0.7005    0.7369 H         1 <0>         0.0980
     28 H5         -1.1109   -0.4447   -0.1789 H         1 <0>         0.1181
     29 H6          1.3107   -2.2718   -2.4404 H         1 <0>         0.0924
     30 H7          1.1515   -2.4791   -0.6798 H         1 <0>         0.0987
     31 H8         -1.3356   -2.2296   -0.9224 H         1 <0>         0.0715
     32 H9         -1.1233   -2.1632   -2.6884 H         1 <0>         0.0706
     33 H10        -0.6930   -3.6415   -1.7953 H         1 <0>         0.0820
     34 H11         0.3776   -0.2205   -3.5061 H         1 <0>         0.1028
     35 H12        -1.1183   -0.1621   -2.5432 H         1 <0>         0.1253
     36 H13         0.6030    1.9948   -1.8196 H         1 <0>         0.4085
     37 H14        -1.8443    4.2172   -4.7681 H         1 <0>         0.4288
     38 H15         1.0542    5.8648   -3.6357 H         1 <0>         0.1422
     39 H16         1.4011    8.2971   -3.6421 H         1 <0>         0.1416
     40 H17        -2.7244    8.8726   -4.6765 H         1 <0>         0.1445
     41 H18        -3.0578    6.4384   -4.6772 H         1 <0>         0.1431
     42 H19         2.8142   -1.7453   -0.4963 H         1 <0>         0.1295
     43 H20         3.8048   -0.2898   -0.2348 H         1 <0>         0.1289
     44 H21         2.2961   -0.5161    0.6822 H         1 <0>         0.1267
     45 H22         2.1971    0.3846   -3.3961 H         1 <0>         0.1226
     46 H23         3.7444    0.1148   -2.5588 H         1 <0>         0.1312
     47 H24         2.6574   -1.2567   -2.8838 H         1 <0>         0.1302
     48 H25         2.0158    1.0078   -1.1306 H         1 <0>         0.4178
@<TRIPOS>BOND
     1    1    2 1
     2    1   24 1
     3    1   25 1
     4    1   26 1
     5    2    3 1
     6    2   27 1
     7    2   28 1
     8    3    4 1
     9    3    6 1
    10    3   21 1
    11    4    5 1
    12    4   29 1
    13    4   30 1
    14    5   31 1
    15    5   32 1
    16    5   33 1
    17    6    7 1
    18    6   34 1
    19    6   35 1
    20    7    8 am
    21    7   36 1
    22    8    9 2
    23    8   10 1
    24   10   11 2
    25   10   12 am
    26   12   13 1
    27   12   37 1
    28   13   18 ar
    29   13   14 ar
    30   14   15 ar
    31   14   38 1
    32   15   16 ar
    33   15   39 1
    34   16   17 ar
    35   16   19 1
    36   17   18 ar
    37   17   40 1
    38   18   41 1
    39   19   20 3
    40   21   22 1
    41   21   23 1
    42   21   48 1
    43   22   42 1
    44   22   43 1
    45   22   44 1
    46   23   45 1
    47   23   46 1
    48   23   47 1
@<TRIPOS>MOLECULE
ZINC48965988
   48    48     0     0     0
SMALL
USER_CHARGES

@<TRIPOS>ATOM
      1 C1         -0.0192    1.1524   -0.5012 C.3       1 <0>        -0.1566
      2 C2          0.1231   -0.3363   -0.1784 C.3       1 <0>        -0.1302
      3 C3          0.8436   -0.5011    1.1612 C.3       1 <0>         0.0737
      4 H1          0.3162    0.0645    1.9294 H         1 <0>         0.0918
      5 C4          0.8709   -1.9593    1.5409 C.2       1 <0>         0.5112
      6 O1          1.9288   -2.5486    1.6083 O.2       1 <0>        -0.5073
      7 N1         -0.2802   -2.6085    1.8055 N.am      1 <0>        -0.7306
      8 C5         -0.2536   -4.0260    2.1745 C.3       1 <0>         0.1355
      9 C6         -0.2429   -4.8850    0.9068 C.3       1 <0>        -0.1605
     10 C7         -0.2954   -6.3633    1.2986 C.3       1 <0>        -0.0025
     11 N2         -1.5218   -6.6280    2.0604 N.4       1 <0>        -0.3709
     12 C8         -1.5057   -5.8618    3.3123 C.3       1 <0>        -0.0129
     13 C9         -1.4997   -4.3642    2.9980 C.3       1 <0>        -0.1508
     14 C10        -1.6061   -8.0622    2.3670 C.3       1 <0>        -0.0316
     15 C11        -2.9218   -8.3553    3.0409 C.2       1 <0>         0.4981
     16 O2         -3.7114   -7.4579    3.2457 O.2       1 <0>        -0.5271
     17 N3         -3.2209   -9.6148    3.4161 N.am      1 <0>        -0.7053
     18 C12        -4.4998   -9.8998    4.0713 C.3       1 <0>         0.0778
     19 O3          2.1819   -0.0139    1.0454 O.3       1 <0>        -0.3534
     20 C13         2.4286    1.1875    1.7788 C.3       1 <0>         0.0534
     21 C14         3.9099    1.5554    1.6716 C.3       1 <0>        -0.1537
     22 H2          0.9702    1.6005   -0.5927 H         1 <0>         0.0649
     23 H3         -0.5599    1.2706   -1.4402 H         1 <0>         0.0652
     24 H4         -0.5693    1.6469    0.2995 H         1 <0>         0.0564
     25 H5         -0.8657   -0.7910   -0.1175 H         1 <0>         0.0741
     26 H6          0.6999   -0.8249   -0.9637 H         1 <0>         0.0790
     27 H7         -1.1263   -2.1371    1.7516 H         1 <0>         0.4068
     28 H8          0.6398   -4.2325    2.7638 H         1 <0>         0.1055
     29 H9         -1.1101   -4.6399    0.2937 H         1 <0>         0.0928
     30 H10         0.6692   -4.6902    0.3428 H         1 <0>         0.1201
     31 H11        -0.2878   -6.9778    0.3983 H         1 <0>         0.1370
     32 H12         0.5723   -6.6074    1.9114 H         1 <0>         0.1350
     33 H13        -2.3914   -6.1059    3.8987 H         1 <0>         0.1525
     34 H14        -0.6121   -6.1165    3.8822 H         1 <0>         0.1295
     35 H15        -1.4859   -3.7970    3.9287 H         1 <0>         0.1197
     36 H16        -2.3930   -4.1083    2.4283 H         1 <0>         0.0963
     37 H17        -1.5354   -8.6360    1.4429 H         1 <0>         0.1619
     38 H18        -0.7878   -8.3405    3.0310 H         1 <0>         0.1607
     39 H19        -2.5893  -10.3326    3.2523 H         1 <0>         0.4136
     40 H20        -4.5705   -9.3260    4.9953 H         1 <0>         0.0731
     41 H21        -5.3182   -9.6214    3.4072 H         1 <0>         0.0732
     42 H22        -4.5624  -10.9639    4.2987 H         1 <0>         0.0920
     43 H23         1.8230    1.9951    1.3675 H         1 <0>         0.0561
     44 H24         2.1671    1.0342    2.8258 H         1 <0>         0.0497
     45 H25         4.5155    0.7478    2.0829 H         1 <0>         0.0651
     46 H26         4.1713    1.7086    0.6246 H         1 <0>         0.0662
     47 H27         4.0980    2.4718    2.2310 H         1 <0>         0.0759
     48 H28        -2.3232   -6.3559    1.5110 H         1 <0>         0.4298
@<TRIPOS>BOND
     1    1    2 1
     2    1   22 1
     3    1   23 1
     4    1   24 1
     5    2    3 1
     6    2   25 1
     7    2   26 1
     8    3    4 1
     9    3    5 1
    10    3   19 1
    11    5    6 2
    12    5    7 am
    13    7    8 1
    14    7   27 1
    15    8   13 1
    16    8    9 1
    17    8   28 1
    18    9   10 1
    19    9   29 1
    20    9   30 1
    21   10   11 1
    22   10   31 1
    23   10   32 1
    24   11   12 1
    25   11   14 1
    26   11   48 1
    27   12   13 1
    28   12   33 1
    29   12   34 1
    30   13   35 1
    31   13   36 1
    32   14   15 1
    33   14   37 1
    34   14   38 1
    35   15   16 2
    36   15   17 am
    37   17   18 1
    38   17   39 1
    39   18   40 1
    40   18   41 1
    41   18   42 1
    42   19   20 1
    43   20   21 1
    44   20   43 1
    45   20   44 1
    46   21   45 1
    47   21   46 1
    48   21   47 1
@<TRIPOS>MOLECULE
ZINC57041844
   52    52     0     0     0
SMALL
USER_CHARGES

@<TRIPOS>ATOM
      1 C1         -0.0187    1.5258    0.0104 C.3       1 <0>        -0.1560
      2 C2          0.0021   -0.0041    0.0020 C.3       1 <0>        -0.1063
      3 C3          0.7182   -0.4975   -1.2568 C.3       1 <0>        -0.1091
      4 H1          1.7103   -0.0491   -1.3098 H         1 <0>         0.1005
      5 C4         -0.0892   -0.0968   -2.4931 C.3       1 <0>        -0.1478
      6 C5          0.8473   -1.9981   -1.2057 C.2       1 <0>         0.5215
      7 O1          0.4096   -2.6124   -0.2560 O.2       1 <0>        -0.5350
      8 N1          1.4491   -2.6574   -2.2154 N.am      1 <0>        -0.7240
      9 C6          1.5746   -4.1162   -2.1658 C.3       1 <0>         0.0994
     10 C7          2.2800   -4.6022   -3.4057 C.2       1 <0>         0.5153
     11 O2          2.6422   -3.8082   -4.2479 O.2       1 <0>        -0.5285
     12 N2          2.5083   -5.9192   -3.5786 N.am      1 <0>        -0.7305
     13 C8          3.1940   -6.3916   -4.7839 C.3       1 <0>         0.1212
     14 C9          3.3250   -7.9151   -4.7321 C.3       1 <0>         0.0429
     15 N3          4.0126   -8.3889   -5.9407 N.3       1 <0>        -0.5355
     16 C10         3.1940   -8.1542   -7.1386 C.3       1 <0>         0.0186
     17 C11         3.9686   -8.6058   -8.3786 C.3       1 <0>        -0.0017
     18 N4          4.2950  -10.0330   -8.2595 N.4       1 <0>        -0.3879
     19 C12         5.1331  -10.2479   -7.0725 C.3       1 <0>        -0.0060
     20 C13         4.3681   -9.8100   -5.8216 C.3       1 <0>         0.0278
     21 C14         5.0228  -10.4703   -9.4582 C.3       1 <0>        -0.0097
     22 C15         5.2536  -11.9813   -9.3918 C.3       1 <0>        -0.1893
     23 H2          1.0039    1.9031    0.0027 H         1 <0>         0.0554
     24 H3         -0.5459    1.8868   -0.8726 H         1 <0>         0.0581
     25 H4         -0.5289    1.8773    0.9072 H         1 <0>         0.0600
     26 H5          0.5293   -0.3651    0.8851 H         1 <0>         0.0712
     27 H6         -1.0205   -0.3814    0.0098 H         1 <0>         0.0695
     28 H7         -1.0813   -0.5452   -2.4401 H         1 <0>         0.0616
     29 H8         -0.1826    0.9885   -2.5300 H         1 <0>         0.0748
     30 H9          0.4210   -0.4484   -3.3899 H         1 <0>         0.0591
     31 H10         1.7992   -2.1661   -2.9750 H         1 <0>         0.4126
     32 H11         2.1498   -4.4016   -1.2850 H         1 <0>         0.1021
     33 H12         0.5825   -4.5646   -2.1128 H         1 <0>         0.1011
     34 H13         2.2186   -6.5542   -2.9050 H         1 <0>         0.4067
     35 H14         2.6187   -6.1062   -5.6647 H         1 <0>         0.0696
     36 H15         4.1861   -5.9432   -4.8369 H         1 <0>         0.0834
     37 H16         3.9003   -8.2006   -3.8513 H         1 <0>         0.0978
     38 H17         2.3329   -8.3636   -4.6791 H         1 <0>         0.0560
     39 H18         2.2667   -8.7220   -7.0623 H         1 <0>         0.0635
     40 H19         2.9647   -7.0917   -7.2200 H         1 <0>         0.1268
     41 H20         3.3576   -8.4457   -9.2670 H         1 <0>         0.1371
     42 H21         4.8893   -8.0283   -8.4621 H         1 <0>         0.1390
     43 H22         5.3853  -11.3053   -6.9925 H         1 <0>         0.1381
     44 H23         6.0478   -9.6621   -7.1627 H         1 <0>         0.1389
     45 H24         4.9954   -9.9555   -4.9422 H         1 <0>         0.1255
     46 H25         3.4601  -10.4050   -5.7237 H         1 <0>         0.0627
     47 H26         4.4377  -10.2308  -10.3461 H         1 <0>         0.1312
     48 H27         5.9836   -9.9578   -9.5071 H         1 <0>         0.1306
     49 H28         5.8387  -12.2208   -8.5039 H         1 <0>         0.0804
     50 H29         4.2928  -12.4938   -9.3430 H         1 <0>         0.0798
     51 H30         5.7936  -12.3058  -10.2813 H         1 <0>         0.1075
     52 H31         3.4430  -10.5663   -8.1705 H         1 <0>         0.4202
@<TRIPOS>BOND
     1    1    2 1
     2    1   23 1
     3    1   24 1
     4    1   25 1
     5    2    3 1
     6    2   26 1
     7    2   27 1
     8    3    4 1
     9    3    5 1
    10    3    6 1
    11    5   28 1
    12    5   29 1
    13    5   30 1
    14    6    7 2
    15    6    8 am
    16    8    9 1
    17    8   31 1
    18    9   10 1
    19    9   32 1
    20    9   33 1
    21   10   11 2
    22   10   12 am
    23   12   13 1
    24   12   34 1
    25   13   14 1
    26   13   35 1
    27   13   36 1
    28   14   15 1
    29   14   37 1
    30   14   38 1
    31   15   20 1
    32   15   16 1
    33   16   17 1
    34   16   39 1
    35   16   40 1
    36   17   18 1
    37   17   41 1
    38   17   42 1
    39   18   19 1
    40   18   21 1
    41   18   52 1
    42   19   20 1
    43   19   43 1
    44   19   44 1
    45   20   45 1
    46   20   46 1
    47   21   22 1
    48   21   47 1
    49   21   48 1
    50   22   49 1
    51   22   50 1
    52   22   51 1
