@<TRIPOS>MOLECULE
2E1W-FR6
 45 47 0 0 0
SMALL
SF_CHARGES


@<TRIPOS>ATOM
1    C        51.5270   54.5190   20.9790  C.2        1 SUBUNIT     -0.0213
2    N        51.4640   55.5440   22.0340  N.pl3      1 SUBUNIT     -0.2523
3    C        51.3380   54.9180   23.2050  C.2        1 SUBUNIT      0.2688
4    N        51.4810   53.5840   23.0650  N.2        1 SUBUNIT     -0.5170
5    C        51.5360   53.3320   21.6090  C.2        1 SUBUNIT      0.2235
6    C        51.5700   51.9650   21.0070  C.2        1 SUBUNIT      0.6381
7    O        52.0650   51.6940   19.9230  O.2        1 SUBUNIT     -0.5563
8    N        51.1200   50.9800   21.7510  N.am       1 SUBUNIT     -0.6911
9    C        51.5520   56.9910   21.8560  C.3        1 SUBUNIT      0.1518
10   C        53.0510   57.5330   21.8270  C.3        1 SUBUNIT      0.2173
11   O        53.9690   57.2110   22.9310  O.3        1 SUBUNIT     -0.5665
12   C        50.6710   57.4600   20.6780  C.3        1 SUBUNIT     -0.0860
13   C        49.1300   57.3580   20.8840  C.3        1 SUBUNIT     -0.0371
14   C        48.4170   57.8360   19.6260  C.2        1 SUBUNIT     -0.0491
15   C        48.0220   59.1820   19.5170  C.2        1 SUBUNIT     -0.1118
16   C        47.5180   59.7000   18.3220  C.2        1 SUBUNIT     -0.1085
17   C        47.5040   58.9030   17.1760  C.2        1 SUBUNIT     -0.1134
18   C        47.9030   57.5590   17.2590  C.2        1 SUBUNIT     -0.0186
19   C        48.3880   57.0270   18.4650  C.2        1 SUBUNIT     -0.0218
20   C        47.7620   56.7650   16.1080  C.2        1 SUBUNIT     -0.1138
21   C        48.6780   55.6420   18.5240  C.2        1 SUBUNIT     -0.1140
22   C        48.0980   55.4130   16.1710  C.2        1 SUBUNIT     -0.1089
23   C        48.5200   54.8420   17.3770  C.2        1 SUBUNIT     -0.1087
24   C        53.8140   57.3180   20.4920  C.3        1 SUBUNIT     -0.1232
25   H        51.5605   54.6488   19.9114  H          1 SUBUNIT      0.0957
26   H        51.1469   55.4178   24.1385  H          1 SUBUNIT      0.0685
27   H        51.1203   50.0375   21.3935  H          1 SUBUNIT      0.3267
28   H        50.7745   51.1668   22.6793  H          1 SUBUNIT      0.3267
29   H        51.1018   57.4110   22.7615  H          1 SUBUNIT      0.0317
30   H        52.8380   58.5927   22.0020  H          1 SUBUNIT      0.0273
31   H        53.6459   57.6248   23.7348  H          1 SUBUNIT      0.3845
32   H        50.9145   58.5090   20.4798  H          1 SUBUNIT      0.0453
33   H        50.9340   56.8526   19.8057  H          1 SUBUNIT      0.0453
34   H        48.8514   56.3178   21.0823  H          1 SUBUNIT      0.0387
35   H        48.8275   57.9849   21.7293  H          1 SUBUNIT      0.0387
36   H        48.1087   59.8301   20.3716  H          1 SUBUNIT      0.0991
37   H        47.1426   60.7077   18.2846  H          1 SUBUNIT      0.0980
38   H        47.1886   59.3192   16.2352  H          1 SUBUNIT      0.0970
39   H        47.4000   57.1908   15.1886  H          1 SUBUNIT      0.0962
40   H        49.0190   55.1988   19.4433  H          1 SUBUNIT      0.0956
41   H        48.0317   54.8060   15.2850  H          1 SUBUNIT      0.0952
42   H        48.7238   53.7865   17.4245  H          1 SUBUNIT      0.0949
43   H        53.8834   56.2531   20.2468  H          1 SUBUNIT      0.0383
44   H        54.8321   57.7163   20.5534  H          1 SUBUNIT      0.0383
45   H        53.3050   57.8216   19.6636  H          1 SUBUNIT      0.0383
@<TRIPOS>BOND
     1    1    2 1
     2    1    5 2
     3    2    3 1
     4    2    9 1
     5    3    4 2
     6    4    5 1
     7    5    6 1
     8    6    7 2
     9    6    8 1
    10    9   10 1
    11    9   12 1
    12   10   11 1
    13   10   24 1
    14   12   13 1
    15   13   14 1
    16   14   15 1
    17   14   19 2
    18   15   16 2
    19   16   17 1
    20   17   18 2
    21   18   19 1
    22   18   20 1
    23   19   21 1
    24   20   22 2
    25   21   23 2
    26   22   23 1
    27    1   25 1
    28    3   26 1
    29    8   27 1
    30    8   28 1
    31    9   29 1
    32   10   30 1
    33   11   31 1
    34   12   32 1
    35   12   33 1
    36   13   34 1
    37   13   35 1
    38   15   36 1
    39   16   37 1
    40   17   38 1
    41   20   39 1
    42   21   40 1
    43   22   41 1
    44   23   42 1
    45   24   43 1
    46   24   44 1
    47   24   45 1
