@<TRIPOS>MOLECULE
2HZI-JIN
 44 47 0 0 0
SMALL
SF_CHARGES


@<TRIPOS>ATOM
1    C        18.7180   14.5070    3.5840  C.2        1 SUBUNIT     -0.0739
2    C        17.6050   16.1330    4.9300  C.2        1 SUBUNIT      0.6663
3    C        15.1530   16.0020    5.3110  C.3        1 SUBUNIT      0.1141
4    C        22.0520   16.8670    5.8630  C.2        1 SUBUNIT     -0.1023
5    C        22.4560   17.8380    4.9110  C.2        1 SUBUNIT     -0.0951
6    C        20.1290   16.3200    4.5030  C.2        1 SUBUNIT     -0.0233
7    C        20.8670   16.1450    5.6450  C.2        1 SUBUNIT      0.0165
8    C        12.7210   12.4780    3.1580  C.2        1 SUBUNIT      0.1206
9    C         9.9420   13.0810    3.6230  C.2        1 SUBUNIT      0.1419
10   C        10.9270   13.7090    4.3430  C.2        1 SUBUNIT     -0.1127
11   C         9.2220   11.4610    1.9550  C.3        1 SUBUNIT     -0.0652
12   F         8.6710   13.3630    3.8870  F          1 SUBUNIT     -0.1906
13   C        10.3390   12.1550    2.6880  C.2        1 SUBUNIT     -0.0445
14   C        11.6930   11.7860    2.4860  C.2        1 SUBUNIT     -0.1128
15   C        12.2820   13.4030    4.1210  C.2        1 SUBUNIT     -0.1094
16   N        13.9880   12.0550    2.8670  N.pl3      1 SUBUNIT     -0.5290
17   C        15.1360   12.7130    3.0870  C.2        1 SUBUNIT      0.6709
18   N        16.1630   12.1260    2.5210  N.2        1 SUBUNIT     -0.5257
19   C        17.3840   12.6850    2.6400  C.2        1 SUBUNIT      0.1733
20   N        15.1830   13.8300    3.8310  N.2        1 SUBUNIT     -0.5442
21   C        16.3920   14.4070    3.9860  C.2        1 SUBUNIT      0.3873
22   N        16.4410   15.4940    4.7440  N.am       1 SUBUNIT     -0.4321
23   O        17.5860   17.1530    5.6210  O.2        1 SUBUNIT     -0.5423
24   C        18.7910   15.6810    4.3350  C.2        1 SUBUNIT     -0.0282
25   C        17.5060   13.8530    3.4140  C.2        1 SUBUNIT     -0.0561
26   C        20.5380   17.2630    3.5440  C.2        1 SUBUNIT      0.0165
27   C        21.7110   18.0230    3.7110  C.2        1 SUBUNIT     -0.1023
28   Cl       19.6970   17.5810    2.0470  Cl         1 SUBUNIT     -0.0879
29   Cl       20.3770   14.9170    6.8500  Cl         1 SUBUNIT     -0.0879
30   H        19.6071   14.1033    3.1319  H          1 SUBUNIT      0.1064
31   H        15.2021   16.0633    6.4032  H          1 SUBUNIT      0.0519
32   H        14.3207   15.3408    5.0481  H          1 SUBUNIT      0.0519
33   H        14.9228   17.0016    4.9279  H          1 SUBUNIT      0.0519
34   H        22.6427   16.6821    6.7431  H          1 SUBUNIT      0.1177
35   H        23.3301   18.4369    5.0983  H          1 SUBUNIT      0.1224
36   H        10.6474   14.4402    5.0812  H          1 SUBUNIT      0.1213
37   H         8.5741   10.9177    2.6507  H          1 SUBUNIT      0.0584
38   H         9.6161   10.7411    1.2301  H          1 SUBUNIT      0.0584
39   H         8.6024   12.1815    1.4110  H          1 SUBUNIT      0.0584
40   H        11.9391   10.9776    1.8199  H          1 SUBUNIT      0.1162
41   H        13.0223   13.9036    4.7202  H          1 SUBUNIT      0.1150
42   H        14.0797   11.1472    2.4385  H          1 SUBUNIT      0.3252
43   H        18.2282   12.2339    2.1483  H          1 SUBUNIT      0.0851
44   H        22.0291   18.7186    2.9542  H          1 SUBUNIT      0.1177
@<TRIPOS>BOND
     1    1   24 2
     2    1   25 1
     3    2   22 1
     4    2   23 2
     5    2   24 1
     6    3   22 1
     7    4    5 2
     8    4    7 1
     9    5   27 1
    10    6    7 2
    11    6   24 1
    12    6   26 1
    13    7   29 1
    14    8   14 2
    15    8   15 1
    16    8   16 1
    17    9   10 1
    18    9   12 1
    19    9   13 2
    20   10   15 2
    21   11   13 1
    22   13   14 1
    23   16   17 1
    24   17   18 2
    25   17   20 1
    26   18   19 1
    27   19   25 2
    28   20   21 2
    29   21   22 1
    30   21   25 1
    31   26   27 2
    32   26   28 1
    33    1   30 1
    34    3   31 1
    35    3   32 1
    36    3   33 1
    37    4   34 1
    38    5   35 1
    39   10   36 1
    40   11   37 1
    41   11   38 1
    42   11   39 1
    43   14   40 1
    44   15   41 1
    45   16   42 1
    46   19   43 1
    47   27   44 1
