@<TRIPOS>MOLECULE
2QD9-LGF
 64 69 0 0 0
SMALL
SF_CHARGES


@<TRIPOS>ATOM
1    C        -5.1970    0.8110   16.0660  C.2        1 SUBUNIT      0.1600
2    C        -1.1390   -1.6720   24.8540  C.2        1 SUBUNIT     -0.0596
3    C        -1.6310   -2.2060   23.4880  C.2        1 SUBUNIT      0.6715
4    C        -3.1990    1.7070   17.1910  C.2        1 SUBUNIT     -0.0994
5    C        -1.9510   -1.8190   25.9190  C.2        1 SUBUNIT     -0.1055
6    C         0.1860   -0.9190   24.9690  C.2        1 SUBUNIT      0.4283
7    C        -0.2310   -0.6320   27.1240  C.2        1 SUBUNIT      0.3694
8    C        -1.3700   -1.2650   27.1320  C.2        1 SUBUNIT     -0.0382
9    C        -1.9240   -1.2560   28.5060  C.2        1 SUBUNIT     -0.0400
10   C        -5.1530    0.8710   18.3680  C.2        1 SUBUNIT      0.1377
11   C        -5.8630    0.5360   17.1740  C.2        1 SUBUNIT     -0.1289
12   C        -3.1870   -1.8730   29.0110  C.2        1 SUBUNIT      0.4760
13   F        -5.7360    0.3790   14.9510  F          1 SUBUNIT     -0.1941
14   C        -3.9000    1.3950   16.0670  C.2        1 SUBUNIT     -0.1173
15   F        -5.7910    0.5110   19.5240  F          1 SUBUNIT     -0.1941
16   C        -3.8760    1.3600   18.4250  C.2        1 SUBUNIT     -0.0526
17   C        -3.2220    1.5840   19.7610  C.2        1 SUBUNIT      0.3611
18   N        -2.7010    2.6700   20.2160  N.2        1 SUBUNIT     -0.5148
19   N        -2.8910    0.5150   20.6160  N.pl3      1 SUBUNIT     -0.2581
20   C        -2.2000    1.0350   21.6110  C.2        1 SUBUNIT      0.0316
21   C        -2.0610    2.3530   21.4570  C.2        1 SUBUNIT      0.1607
22   C        -1.6440    0.2260   22.6970  C.3        1 SUBUNIT      0.1643
23   N        -1.9080   -1.1750   22.4590  N.am       1 SUBUNIT     -0.4799
24   C        -2.0920   -1.7360   21.0890  C.3        1 SUBUNIT      0.1277
25   C        -3.2270   -0.9140   20.4330  C.3        1 SUBUNIT      0.1186
26   O        -1.7520   -3.3570   23.1670  O.2        1 SUBUNIT     -0.5574
27   N         0.0150   -0.2090   28.3880  N.pl3      1 SUBUNIT     -0.3336
28   C        -1.0250   -0.5800   29.2420  C.2        1 SUBUNIT     -0.0153
29   N         0.5780   -0.4660   26.0620  N.2        1 SUBUNIT     -0.5426
30   O         0.9070   -0.7750   23.8330  O.3        1 SUBUNIT     -0.4083
31   C         2.1800   -0.0500   23.9140  C.3        1 SUBUNIT      0.1462
32   O        -3.8580   -2.6410   28.3010  O.2        1 SUBUNIT     -0.5481
33   C        -3.6340   -1.6020   30.4450  C.2        1 SUBUNIT      0.6266
34   O        -3.4460   -0.4910   30.9570  O.2        1 SUBUNIT     -0.5578
35   N        -4.2140   -2.5750   31.2580  N.am       1 SUBUNIT     -0.4794
36   C        -3.6840   -3.8920   31.4860  C.3        1 SUBUNIT      0.1191
37   C        -5.0400   -4.5980   31.4630  C.3        1 SUBUNIT      0.2159
38   O        -5.5640   -4.6960   30.1400  O.3        1 SUBUNIT     -0.5671
39   C        -5.8970   -3.7630   32.4010  C.3        1 SUBUNIT     -0.1006
40   C        -5.4650   -2.3350   31.9840  C.3        1 SUBUNIT      0.1377
41   H        -2.2294    2.1703   17.1354  H          1 SUBUNIT      0.1042
42   H        -2.9120   -2.2969   25.8422  H          1 SUBUNIT      0.1049
43   H        -6.8463    0.1005   17.1396  H          1 SUBUNIT      0.1057
44   H        -3.4216    1.6134   15.1283  H          1 SUBUNIT      0.1066
45   H        -1.5634    3.0142   22.1447  H          1 SUBUNIT      0.0797
46   H        -0.5617    0.3833   22.7517  H          1 SUBUNIT      0.0306
47   H        -2.1047    0.5222   23.6452  H          1 SUBUNIT      0.0306
48   H        -1.1628   -1.6359   20.5185  H          1 SUBUNIT      0.0362
49   H        -2.3687   -2.7935   21.1544  H          1 SUBUNIT      0.0362
50   H        -4.1862   -1.1292   20.9154  H          1 SUBUNIT      0.0382
51   H        -3.2969   -1.1396   19.3638  H          1 SUBUNIT      0.0382
52   H         0.8398    0.3024   28.6604  H          1 SUBUNIT      0.3194
53   H        -1.1082   -0.3725   30.2945  H          1 SUBUNIT      0.1022
54   H         2.0258    0.9757   24.2650  H          1 SUBUNIT      0.0389
55   H         2.6666   -0.0009   22.9343  H          1 SUBUNIT      0.0389
56   H         2.8690   -0.5431   24.6077  H          1 SUBUNIT      0.0389
57   H        -3.0122   -4.2146   30.6837  H          1 SUBUNIT      0.0402
58   H        -3.1685   -3.9720   32.4487  H          1 SUBUNIT      0.0402
59   H        -5.0094   -5.6532   31.7539  H          1 SUBUNIT      0.0345
60   H        -5.8199   -3.8203   29.8412  H          1 SUBUNIT      0.3924
61   H        -6.9645   -3.9329   32.2262  H          1 SUBUNIT      0.0545
62   H        -5.6610   -3.9698   33.4501  H          1 SUBUNIT      0.0545
63   H        -5.2873   -1.6954   32.8549  H          1 SUBUNIT      0.0374
64   H        -6.2050   -1.8634   31.3290  H          1 SUBUNIT      0.0374
@<TRIPOS>BOND
     1    1   11 2
     2    1   13 1
     3    1   14 1
     4    2    3 1
     5    2    5 2
     6    2    6 1
     7    3   23 1
     8    3   26 2
     9    4   14 2
    10    4   16 1
    11    5    8 1
    12    6   29 2
    13    6   30 1
    14    7    8 2
    15    7   27 1
    16    7   29 1
    17    8    9 1
    18    9   12 1
    19    9   28 2
    20   10   11 1
    21   10   15 1
    22   10   16 2
    23   12   32 2
    24   12   33 1
    25   16   17 1
    26   17   18 2
    27   17   19 1
    28   18   21 1
    29   19   20 1
    30   19   25 1
    31   20   21 2
    32   20   22 1
    33   22   23 1
    34   23   24 1
    35   24   25 1
    36   27   28 1
    37   30   31 1
    38   33   34 2
    39   33   35 1
    40   35   36 1
    41   35   40 1
    42   36   37 1
    43   37   38 1
    44   37   39 1
    45   39   40 1
    46    4   41 1
    47    5   42 1
    48   11   43 1
    49   14   44 1
    50   21   45 1
    51   22   46 1
    52   22   47 1
    53   24   48 1
    54   24   49 1
    55   25   50 1
    56   25   51 1
    57   27   52 1
    58   28   53 1
    59   31   54 1
    60   31   55 1
    61   31   56 1
    62   36   57 1
    63   36   58 1
    64   37   59 1
    65   38   60 1
    66   39   61 1
    67   39   62 1
    68   40   63 1
    69   40   64 1
