@<TRIPOS>MOLECULE
2AYW-ONO
 70 72 0 0 0
SMALL
SF_CHARGES


@<TRIPOS>ATOM
1    O        24.2540   25.1620   26.7670  O.2        1 SUBUNIT     -0.5324
2    C        23.3300   24.3610   26.5770  C.2        1 SUBUNIT      0.6789
3    N        22.3740   24.2560   25.5980  N.am       1 SUBUNIT     -0.5715
4    C        22.4600   25.0380   24.3250  C.3        1 SUBUNIT      0.1761
5    C        21.8960   26.4120   24.4290  C.3        1 SUBUNIT      0.1918
6    O        22.6270   27.2990   25.3110  O.3        1 SUBUNIT     -0.5496
7    C        22.3640   24.1720   23.0430  C.3        1 SUBUNIT      0.0125
8    C        22.5530   25.0140   21.7910  C.3        1 SUBUNIT     -0.0997
9    C        23.4720   23.0910   23.0790  C.3        1 SUBUNIT     -0.0997
10   C        20.9310   23.5680   22.8490  C.3        1 SUBUNIT     -0.0997
11   C        23.2440   23.4640   27.6700  C.2        1 SUBUNIT     -0.0358
12   C        23.5460   23.8400   28.9340  C.2        1 SUBUNIT     -0.1025
13   C        23.5040   22.9140   29.9670  C.2        1 SUBUNIT     -0.1016
14   C        23.0520   22.0910   27.3530  C.2        1 SUBUNIT     -0.1048
15   C        22.9930   21.1680   28.3560  C.2        1 SUBUNIT     -0.0433
16   C        22.6340   19.7440   28.0080  C.2        1 SUBUNIT      0.7832
17   O        23.2420   19.2010   27.0860  O.co2      1 SUBUNIT     -0.8905
18   O        21.7130   19.2040   28.6340  O.co2      1 SUBUNIT     -0.8905
19   C        23.1730   21.5890   29.7020  C.2        1 SUBUNIT     -0.0074
20   C        23.1170   20.6570   30.8310  C.2        1 SUBUNIT     -0.0268
21   C        22.0510   20.8740   31.7680  C.2        1 SUBUNIT     -0.0991
22   C        21.7710   19.9670   32.7790  C.2        1 SUBUNIT     -0.1278
23   C        22.5530   18.8150   32.8220  C.2        1 SUBUNIT      0.4347
24   O        22.2500   17.9000   33.7720  O.3        1 SUBUNIT     -0.3931
25   C        23.0550   16.7140   33.7920  C.3        1 SUBUNIT      0.1636
26   N        23.5450   18.5860   31.9320  N.2        1 SUBUNIT     -0.5196
27   C        23.7890   19.5020   30.9210  C.2        1 SUBUNIT      0.2360
28   C        24.9670   19.1300   30.1870  C.2        1 SUBUNIT      0.6461
29   O        25.7780   19.9250   29.9610  O.2        1 SUBUNIT     -0.5438
30   N        25.1880   17.8330   29.9400  N.am       1 SUBUNIT     -0.5301
31   C        26.3400   17.2780   29.3740  C.2        1 SUBUNIT      0.1201
32   C        27.6030   17.8370   29.5360  C.2        1 SUBUNIT     -0.1097
33   C        28.7260   17.1920   29.0640  C.2        1 SUBUNIT     -0.1034
34   C        28.6190   15.9530   28.4400  C.2        1 SUBUNIT     -0.0204
35   C        29.8040   15.2420   27.9740  C.2        1 SUBUNIT      0.3871
36   N        29.7380   13.9670   27.6080  N.pl3      1 SUBUNIT     -0.6188
37   N        30.9750   15.8590   27.9120  N.pl3      1 SUBUNIT     -0.6188
38   C        27.3560   15.4190   28.2430  C.2        1 SUBUNIT     -0.1034
39   C        26.2310   16.0710   28.7190  C.2        1 SUBUNIT     -0.1097
40   H        21.6103   23.6241   25.7814  H          1 SUBUNIT      0.3355
41   H        23.4839   25.3938   24.1699  H          1 SUBUNIT      0.0438
42   H        21.8904   26.8624   23.4310  H          1 SUBUNIT      0.0438
43   H        20.8694   26.3395   24.8031  H          1 SUBUNIT      0.0438
44   H        22.6290   26.9258   26.1955  H          1 SUBUNIT      0.4014
45   H        21.7881   25.7946   21.7239  H          1 SUBUNIT      0.0650
46   H        22.4842   24.3970   20.8890  H          1 SUBUNIT      0.0650
47   H        23.5331   25.5023   21.7907  H          1 SUBUNIT      0.0650
48   H        24.4656   23.5489   23.1245  H          1 SUBUNIT      0.0650
49   H        23.4331   22.4593   22.1854  H          1 SUBUNIT      0.0650
50   H        23.3596   22.4429   23.9544  H          1 SUBUNIT      0.0650
51   H        20.6559   22.9305   23.6957  H          1 SUBUNIT      0.0650
52   H        20.8813   22.9599   21.9397  H          1 SUBUNIT      0.0650
53   H        20.1793   24.3599   22.7658  H          1 SUBUNIT      0.0650
54   H        23.8181   24.8632   29.1257  H          1 SUBUNIT      0.1187
55   H        23.7278   23.2224   30.9733  H          1 SUBUNIT      0.1183
56   H        22.9515   21.7605   26.3340  H          1 SUBUNIT      0.1178
57   H        21.4426   21.7588   31.6990  H          1 SUBUNIT      0.1173
58   H        20.9874   20.1464   33.4943  H          1 SUBUNIT      0.1168
59   H        22.9807   16.1733   32.8427  H          1 SUBUNIT      0.0399
60   H        22.7360   16.0366   34.5910  H          1 SUBUNIT      0.0399
61   H        24.1093   16.9581   33.9587  H          1 SUBUNIT      0.0399
62   H        24.4363   17.2117   30.1950  H          1 SUBUNIT      0.3268
63   H        27.7096   18.7842   30.0352  H          1 SUBUNIT      0.1109
64   H        29.6906   17.6542   29.1813  H          1 SUBUNIT      0.1104
65   H        30.5670   13.4908   27.2883  H          1 SUBUNIT      0.3230
66   H        28.8590   13.4755   27.6499  H          1 SUBUNIT      0.3230
67   H        31.7902   15.3618   27.5890  H          1 SUBUNIT      0.3230
68   H        27.2479   14.4879   27.7146  H          1 SUBUNIT      0.1104
69   H        25.2590   15.6319   28.5769  H          1 SUBUNIT      0.1109
70   H        31.1739   16.8159   28.1588  H          1 SUBUNIT      0.3230
@<TRIPOS>BOND
     1    1    2 2
     2    2    3 1
     3    2   11 1
     4    3    4 1
     5    4    5 1
     6    4    7 1
     7    5    6 1
     8    7    8 1
     9    7    9 1
    10    7   10 1
    11   11   12 1
    12   11   14 2
    13   12   13 2
    14   13   19 1
    15   14   15 1
    16   15   16 1
    17   15   19 2
    18   16   17 2
    19   16   18 1
    20   19   20 1
    21   20   21 1
    22   20   27 2
    23   21   22 2
    24   22   23 1
    25   23   24 1
    26   23   26 2
    27   24   25 1
    28   26   27 1
    29   27   28 1
    30   28   29 2
    31   28   30 1
    32   30   31 1
    33   31   32 2
    34   31   39 1
    35   32   33 1
    36   33   34 2
    37   34   35 1
    38   34   38 1
    39   35   36 1
    40   35   37 2
    41   38   39 2
    42    3   40 1
    43    4   41 1
    44    5   42 1
    45    5   43 1
    46    6   44 1
    47    8   45 1
    48    8   46 1
    49    8   47 1
    50    9   48 1
    51    9   49 1
    52    9   50 1
    53   10   51 1
    54   10   52 1
    55   10   53 1
    56   12   54 1
    57   13   55 1
    58   14   56 1
    59   21   57 1
    60   22   58 1
    61   25   59 1
    62   25   60 1
    63   25   61 1
    64   30   62 1
    65   32   63 1
    66   33   64 1
    67   36   65 1
    68   36   66 1
    69   37   67 1
    70   38   68 1
    71   39   69 1
    72   37   70 1
